<?xml version="1.0" encoding="UTF-8"?>

<!-- generated on 2025-08-30 23:32:22 by Eclipse SUMO netedit Version 1.11.0
-->

<routes xmlns:xsi="http://www.w3.org/2001/XMLSchema-instance" xsi:noNamespaceSchemaLocation="http://sumo.dlr.de/xsd/routes_file.xsd">

	<!-- Custom Vehicle Types -->
    <vType id="autonomous_vehicle" color="1,0,0"/>
	<vType id="floating_car_observer" color="1,0,0"/>
	<vType id="floating_bike_observer" vClass="bicycle" color="1,0.65,0" width="0.65" length="1.6" minGap="0.5" maxSpeed="20" accel="1.2" decel="3.0" sigma="0.5"/>
	<vType id="parked_vehicle" color="0,1,0"/>
	

    <trip id="vehicle_1" type="DEFAULT_BIKETYPE" depart="0.00" from="51476080#4" to="58561800#1"/>
	<trip id="vehicle_0" depart="6.50" from="376401312#2" to="58561800#1"/>
</routes>
