<?xml version="1.0" encoding="UTF-8"?>

<!-- generated on 2025-08-31 01:25:41 by Eclipse SUMO netedit Version 1.11.0
<configuration xmlns:xsi="http://www.w3.org/2001/XMLSchema-instance" xsi:noNamespaceSchemaLocation="http://sumo.dlr.de/xsd/netconvertConfiguration.xsd">

    <input>
        <sumo-net-file value="osm_3d.net.xml"/>
    </input>

    <output>
        <output-file value="osm_3d.net.xml"/>
        <output.street-names value="true"/>
    </output>

    <processing>
        <geometry.min-radius.fix.railways value="false"/>
        <geometry.max-grade.fix value="false"/>
        <offset.disable-normalization value="true"/>
        <lefthand value="false"/>
    </processing>

    <junctions>
        <no-internal-links value="false"/>
        <no-turnarounds value="true"/>
        <junctions.corner-detail value="5"/>
        <junctions.limit-turn-speed value="5.5"/>
        <rectangular-lane-cut value="false"/>
    </junctions>

    <pedestrian>
        <walkingareas value="true"/>
    </pedestrian>

    <report>
        <aggregate-warnings value="5"/>
    </report>

</configuration>
-->

<net version="1.9" junctionCornerDetail="5" walkingareas="true" limitTurnSpeed="5.50" xmlns:xsi="http://www.w3.org/2001/XMLSchema-instance" xsi:noNamespaceSchemaLocation="http://sumo.dlr.de/xsd/net_file.xsd">

    <location netOffset="-690350.21,-5334634.56" convBoundary="0.00,857.05,1386.94,2668.85" origBoundary="11.559153,48.136328,11.577917,48.160116" projParameter="+proj=utm +zone=32 +ellps=WGS84 +datum=WGS84 +units=m +no_defs"/>

    <type id="cycleway.lane|highway.residential" priority="3" numLanes="1" speed="13.89" disallow="pedestrian tram rail_urban rail rail_electric rail_fast ship" oneway="0" sidewalkWidth="2.00" bikeLaneWidth="1.25"/>
    <type id="cycleway.lane|highway.secondary" priority="11" numLanes="1" speed="13.89" disallow="pedestrian tram rail_urban rail rail_electric rail_fast ship" oneway="0" sidewalkWidth="3.00" bikeLaneWidth="1.25"/>
    <type id="highway.cycleway" priority="1" numLanes="1" speed="5.56" allow="bicycle" oneway="0" width="2.00"/>
    <type id="highway.footway" priority="1" numLanes="1" speed="2.78" allow="pedestrian" oneway="1" width="2.00"/>
    <type id="highway.path" priority="1" numLanes="1" speed="5.56" allow="pedestrian bicycle" oneway="0" width="2.00"/>
    <type id="highway.pedestrian" priority="1" numLanes="1" speed="2.78" allow="pedestrian" oneway="1" width="2.00"/>
    <type id="highway.residential" priority="3" numLanes="1" speed="13.89" disallow="pedestrian tram rail_urban rail rail_electric rail_fast ship" oneway="0" sidewalkWidth="2.00"/>
    <type id="highway.secondary" priority="11" numLanes="1" speed="13.89" disallow="pedestrian tram rail_urban rail rail_electric rail_fast ship" oneway="0" sidewalkWidth="3.00"/>
    <type id="highway.service" priority="1" numLanes="1" speed="5.56" allow="pedestrian delivery bicycle" oneway="0"/>
    <type id="highway.steps" priority="1" numLanes="1" speed="1.39" allow="pedestrian" oneway="1" width="2.00"/>
    <type id="highway.tertiary" priority="10" numLanes="1" speed="13.89" disallow="pedestrian tram rail_urban rail rail_electric rail_fast ship" oneway="0" sidewalkWidth="3.00"/>
    <type id="railway.tram" priority="17" numLanes="1" speed="13.89" allow="tram" oneway="1"/>

    <edge id=":10142544413_0" function="internal">
        <lane id=":10142544413_0_0" index="0" allow="pedestrian delivery bicycle" speed="3.65" length="4.67" shape="461.66,1412.54 460.25,1412.26 459.57,1411.67 459.64,1410.78 460.44,1409.58"/>
    </edge>
    <edge id=":10162403624_w0" function="walkingarea">
        <lane id=":10162403624_w0_0" index="0" allow="pedestrian" speed="1.00" length="0.30" width="2.00" shape="836.98,1207.22 838.83,1206.47 838.72,1206.20 836.87,1206.95"/>
    </edge>
    <edge id=":10162403625_w0" function="walkingarea">
        <lane id=":10162403625_w0_0" index="0" allow="pedestrian" speed="1.00" length="0.27" width="2.00" shape="846.67,1209.33 845.91,1207.48 845.69,1207.57 846.40,1209.44"/>
    </edge>
    <edge id=":10162403626_w0" function="walkingarea">
        <lane id=":10162403626_w0_0" index="0" allow="pedestrian" speed="1.00" length="3.51" width="2.00" shape="849.26,1209.84 851.12,1209.10 849.15,1204.47 847.32,1205.28 847.76,1206.72 848.53,1208.57 849.16,1209.49 849.10,1209.14 849.05,1208.84 848.96,1208.62 848.80,1208.52"/>
    </edge>
    <edge id=":10162403627_w0" function="walkingarea">
        <lane id=":10162403627_w0_0" index="0" allow="pedestrian" speed="1.00" length="2.47" width="2.00" shape="680.12,1273.55 679.42,1271.68 677.11,1272.55 677.81,1274.42"/>
    </edge>
    <edge id=":10162403628_w0" function="walkingarea">
        <lane id=":10162403628_w0_0" index="0" allow="pedestrian" speed="1.00" length="0.40" width="2.00" shape="683.48,1264.24 685.36,1263.57 685.50,1263.91 683.64,1264.64"/>
    </edge>
    <edge id=":10162403629_w0" function="walkingarea">
        <lane id=":10162403629_w0_0" index="0" allow="pedestrian" speed="1.00" length="3.76" width="2.00" shape="683.57,1264.45 685.43,1263.72 686.52,1262.39 685.81,1260.52 681.13,1262.27 681.82,1264.15 683.38,1264.12 683.15,1263.94 682.88,1263.88 682.57,1263.91 682.21,1264.01"/>
    </edge>
    <edge id=":10162403631_w0" function="walkingarea">
        <lane id=":10162403631_w0_0" index="0" allow="pedestrian" speed="1.00" length="4.05" width="2.00" shape="686.54,1272.72 688.42,1272.04 689.33,1270.06 688.62,1268.19 686.70,1267.31 684.82,1267.99 683.91,1269.98 684.62,1271.85 686.34,1272.29 686.10,1271.97 685.82,1271.77 685.48,1271.69 685.08,1271.71"/>
    </edge>
    <edge id=":10175282350_w0" function="walkingarea">
        <lane id=":10175282350_w0_0" index="0" allow="pedestrian" speed="1.00" length="4.03" width="2.00" shape="621.00,1569.40 622.85,1568.66 621.00,1564.02 619.14,1564.76 618.29,1566.68 619.00,1568.55 620.78,1568.96 620.52,1568.65 620.23,1568.46 619.88,1568.38 619.47,1568.41"/>
    </edge>
    <edge id=":10175282351_w0" function="walkingarea">
        <lane id=":10175282351_w0_0" index="0" allow="pedestrian" speed="1.00" length="3.47" width="2.00" shape="622.62,1583.70 621.86,1581.85 621.07,1580.56 619.16,1581.16 619.05,1585.06 621.03,1585.28 622.15,1583.88 621.77,1584.05 621.48,1584.23 621.27,1584.47 621.12,1584.80"/>
    </edge>
    <edge id=":10186073417_w0" function="walkingarea">
        <lane id=":10186073417_w0_0" index="0" allow="pedestrian" speed="1.00" length="3.80" width="2.00" shape="490.49,1383.06 492.36,1382.33 492.72,1380.59 492.03,1378.72 490.54,1377.67 488.68,1378.40"/>
    </edge>
    <edge id=":10199385975_0" function="internal">
        <lane id=":10199385975_0_0" index="0" allow="pedestrian delivery bicycle" speed="3.65" length="4.67" shape="502.82,1502.18 502.51,1503.59 501.91,1504.25 501.02,1504.17 499.84,1503.34"/>
    </edge>
    <edge id=":10199385976_0" function="internal">
        <lane id=":10199385976_0_0" index="0" allow="pedestrian delivery bicycle" speed="5.06" length="5.05" shape="493.42,1486.88 492.73,1485.65 491.83,1484.94 490.72,1484.73 489.39,1485.03"/>
    </edge>
    <edge id=":10199385976_1" function="internal">
        <lane id=":10199385976_1_0" index="0" allow="pedestrian delivery bicycle" speed="5.56" length="10.21" shape="493.42,1486.88 492.78,1484.15 493.17,1481.88 494.60,1480.07 497.05,1478.72"/>
    </edge>
    <edge id=":10199385976_2" function="internal">
        <lane id=":10199385976_2_0" index="0" allow="pedestrian delivery bicycle" speed="3.65" length="4.67" shape="493.42,1486.88 493.73,1485.47 494.33,1484.81 495.22,1484.89 496.40,1485.72"/>
    </edge>
    <edge id=":10199385976_3" function="internal">
        <lane id=":10199385976_3_0" index="0" allow="pedestrian delivery bicycle" speed="5.03" length="5.01" shape="498.18,1481.71 496.98,1482.38 496.28,1483.27 496.09,1484.38 496.40,1485.72"/>
    </edge>
    <edge id=":10199385976_4" function="internal">
        <lane id=":10199385976_4_0" index="0" allow="pedestrian delivery bicycle" speed="5.56" length="9.40" shape="498.18,1481.71 489.39,1485.03"/>
    </edge>
    <edge id=":10199385976_5" function="internal">
        <lane id=":10199385976_5_0" index="0" allow="pedestrian delivery bicycle" speed="3.65" length="4.67" shape="498.18,1481.71 496.78,1481.39 496.12,1480.78 496.21,1479.89 497.05,1478.72"/>
    </edge>
    <edge id=":10199385976_6" function="internal">
        <lane id=":10199385976_6_0" index="0" allow="pedestrian delivery bicycle" speed="5.56" length="9.40" shape="488.26,1482.04 497.05,1478.72"/>
    </edge>
    <edge id=":10199385976_7" function="internal">
        <lane id=":10199385976_7_0" index="0" allow="pedestrian delivery bicycle" speed="5.56" length="10.19" shape="488.26,1482.04 490.95,1481.42 493.21,1481.83 495.02,1483.26 496.40,1485.72"/>
    </edge>
    <edge id=":10199385976_8" function="internal">
        <lane id=":10199385976_8_0" index="0" allow="pedestrian delivery bicycle" speed="3.65" length="4.67" shape="488.26,1482.04 489.67,1482.37 490.32,1482.97 490.23,1483.86 489.39,1485.03"/>
    </edge>
    <edge id=":10199385976_w0" function="walkingarea">
        <lane id=":10199385976_w0_0" index="0" allow="pedestrian" speed="1.00" length="6.87" width="3.20" shape="491.93,1487.46 494.91,1486.30 494.91,1486.30 497.89,1485.14 498.75,1483.21 497.62,1480.22 497.62,1480.22 496.49,1477.22 487.68,1480.55 488.84,1483.53 488.81,1483.54 489.97,1486.53 491.71,1487.03 491.46,1486.70 491.15,1486.49 490.80,1486.39 490.41,1486.40"/>
    </edge>
    <edge id=":10199385977_0" function="internal">
        <lane id=":10199385977_0_0" index="0" allow="pedestrian delivery bicycle" speed="3.65" length="4.67" shape="473.96,1491.05 472.55,1490.74 471.89,1490.14 471.97,1489.25 472.80,1488.07"/>
    </edge>
    <edge id=":10288042787_0" function="internal">
        <lane id=":10288042787_0_0" index="0" allow="bicycle" speed="5.56" length="5.01" width="1.00" shape="1006.70,1006.64 1004.84,1002.00"/>
    </edge>
    <edge id=":10288042787_w0" function="walkingarea">
        <lane id=":10288042787_w0_0" index="0" allow="pedestrian" speed="1.00" length="4.03" width="2.00" shape="1004.37,1002.19 1002.52,1002.93 1001.68,1004.87 1002.40,1006.73 1004.38,1007.57 1006.24,1006.83"/>
    </edge>
    <edge id=":1077566065_0" function="internal">
        <lane id=":1077566065_0_0" index="0" allow="bicycle" speed="5.56" length="5.87" width="1.00" shape="290.80,1106.44 296.29,1104.37"/>
    </edge>
    <edge id=":1077566065_w0" function="walkingarea">
        <lane id=":1077566065_w0_0" index="0" allow="pedestrian" speed="1.00" length="4.79" width="2.00" shape="296.11,1103.90 295.41,1102.03 294.65,1101.20 292.85,1100.34 289.90,1104.11 290.62,1105.98"/>
    </edge>
    <edge id=":1077566364_0" function="internal">
        <lane id=":1077566364_0_0" index="0" allow="bicycle" speed="5.56" length="4.46" width="1.00" shape="170.65,1181.42 169.03,1177.27"/>
    </edge>
    <edge id=":1077566364_c0" function="crossing" crossingEdges="113849535#15">
        <lane id=":1077566364_c0_0" index="0" allow="pedestrian" speed="1.00" length="1.00" width="4.00" shape="170.38,1179.38 169.45,1179.74"/>
    </edge>
    <edge id=":1077566364_w0" function="walkingarea">
        <lane id=":1077566364_w0_0" index="0" allow="pedestrian" speed="1.00" length="4.07" width="4.00" shape="168.56,1177.45 166.69,1178.16 164.88,1176.56 164.18,1178.44 168.33,1182.34 170.19,1181.60 168.72,1177.88"/>
    </edge>
    <edge id=":1077566364_w1" function="walkingarea">
        <lane id=":1077566364_w1_0" index="0" allow="pedestrian" speed="1.00" length="0.51" width="4.00" shape="169.65,1177.52 171.12,1181.24 170.44,1179.89 169.77,1178.00"/>
    </edge>
    <edge id=":1077566390_w0" function="walkingarea">
        <lane id=":1077566390_w0_0" index="0" allow="pedestrian" speed="1.00" length="4.18" width="2.00" shape="185.56,1175.59 187.42,1174.87 187.93,1170.76 186.51,1169.36 185.43,1171.56 183.45,1171.81 184.17,1172.47 184.61,1172.69 184.90,1173.19 185.10,1173.91 185.29,1174.74"/>
    </edge>
    <edge id=":1077566508_0" function="internal">
        <lane id=":1077566508_0_0" index="0" disallow="pedestrian tram rail_urban rail rail_electric rail_fast ship" speed="3.65" length="4.67" shape="4.43,1384.44 3.03,1384.11 2.37,1383.50 2.47,1382.61 3.31,1381.44"/>
    </edge>
    <edge id=":1077566664_0" function="internal">
        <lane id=":1077566664_0_0" index="0" allow="bicycle" speed="4.17" length="4.28" width="1.00" shape="339.13,1115.55 335.29,1113.66"/>
    </edge>
    <edge id=":1077566664_1" function="internal">
        <lane id=":1077566664_1_0" index="0" allow="pedestrian bicycle" speed="2.78" length="2.92" width="2.00" shape="339.30,1115.08 338.76,1114.35 338.70,1113.80 339.10,1113.41 339.98,1113.20"/>
    </edge>
    <edge id=":1077566664_w0" function="walkingarea">
        <lane id=":1077566664_w0_0" index="0" allow="pedestrian" speed="1.00" length="3.36" width="2.00" shape="335.46,1114.13 336.13,1116.01 338.96,1116.02 339.64,1114.14 339.64,1114.14 340.32,1112.26"/>
    </edge>
    <edge id=":10776430300_w0" function="walkingarea">
        <lane id=":10776430300_w0_0" index="0" allow="pedestrian" speed="1.00" length="4.06" width="2.00" shape="615.33,1288.52 617.22,1287.85 618.15,1285.86 617.45,1283.99 615.55,1283.10 613.66,1283.76 612.73,1285.76 613.43,1287.63 615.14,1288.09 614.90,1287.77 614.62,1287.57 614.28,1287.48 613.89,1287.50"/>
    </edge>
    <edge id=":10852608900_0" function="internal">
        <lane id=":10852608900_0_0" index="0" allow="bicycle" speed="5.56" length="5.02" width="1.00" shape="352.62,1037.95 354.36,1042.66"/>
    </edge>
    <edge id=":10852608900_c0" function="crossing" crossingEdges="477275835#0">
        <lane id=":10852608900_c0_0" index="0" allow="pedestrian" speed="1.00" length="1.00" width="4.00" shape="352.84,1040.00 353.78,1039.65"/>
    </edge>
    <edge id=":10852608900_w0" function="walkingarea">
        <lane id=":10852608900_w0_0" index="0" allow="pedestrian" speed="1.00" length="3.48" width="4.00" shape="354.83,1042.48 356.70,1041.79 354.97,1037.08 353.09,1037.78 354.48,1041.53"/>
    </edge>
    <edge id=":10852608900_w1" function="walkingarea">
        <lane id=":10852608900_w1_0" index="0" allow="pedestrian" speed="1.00" length="0.74" width="4.00" shape="353.54,1041.88 352.15,1038.12 352.20,1039.64 352.65,1041.59"/>
    </edge>
    <edge id=":10855746723_0" function="internal">
        <lane id=":10855746723_0_0" index="0" allow="pedestrian bicycle" speed="4.17" length="3.08" shape="611.08,1338.02 610.28,1338.44 609.79,1338.85 609.31,1339.26 608.51,1339.68"/>
    </edge>
    <edge id=":10855746723_1" function="internal">
        <lane id=":10855746723_1_0" index="0" allow="pedestrian bicycle" speed="4.17" length="3.08" width="2.00" shape="607.34,1336.70 608.21,1336.46 608.85,1336.43 609.48,1336.40 610.35,1336.16"/>
    </edge>
    <edge id=":10855746723_2" function="internal">
        <lane id=":10855746723_2_0" index="0" allow="pedestrian delivery bicycle" speed="3.65" length="1.93" shape="607.34,1336.70 608.75,1337.00 609.11,1337.33"/>
    </edge>
    <edge id=":10855746723_3" function="internal">
        <lane id=":10855746723_3_0" index="0" allow="pedestrian delivery bicycle" speed="3.65" length="2.74" shape="609.11,1337.33 609.41,1337.60 609.33,1338.49 608.51,1339.68"/>
    </edge>
    <edge id=":10855746723_w0" function="walkingarea">
        <lane id=":10855746723_w0_0" index="0" allow="pedestrian" speed="1.00" length="3.21" width="3.20" shape="611.45,1338.95 610.72,1337.09 610.72,1337.09 609.99,1335.23 606.75,1335.21 607.92,1338.19 607.92,1338.19 609.09,1341.17 610.85,1339.28 610.50,1339.66 610.27,1340.06 610.04,1340.46 609.69,1340.84"/>
    </edge>
    <edge id=":10855746725_w0" function="walkingarea">
        <lane id=":10855746725_w0_0" index="0" allow="pedestrian" speed="1.00" length="0.94" width="2.00" shape="566.93,1492.01 568.78,1491.27 569.14,1492.15 567.27,1492.87"/>
    </edge>
    <edge id=":11069626687_0" function="internal">
        <lane id=":11069626687_0_0" index="0" disallow="pedestrian tram rail_urban rail rail_electric rail_fast ship" speed="3.65" length="4.67" shape="91.23,952.01 91.52,950.60 92.11,949.93 93.00,950.00 94.19,950.81"/>
    </edge>
    <edge id=":11310367_0" function="internal">
        <lane id=":11310367_0_0" index="0" disallow="pedestrian tram rail_urban rail rail_electric rail_fast ship" speed="13.89" length="34.49" shape="357.97,1084.98 356.11,1079.18 353.57,1070.25 350.98,1060.37 348.96,1051.70"/>
    </edge>
    <edge id=":11310367_1" function="internal">
        <lane id=":11310367_1_0" index="0" disallow="pedestrian bicycle tram rail_urban rail rail_electric rail_fast ship" speed="13.89" length="29.55" shape="357.97,1084.98 355.53,1076.73 354.71,1069.20 355.50,1062.40 357.90,1056.33"/>
    </edge>
    <edge id=":11310367_2" function="internal">
        <lane id=":11310367_2_0" index="0" disallow="pedestrian tram rail_urban rail rail_electric rail_fast ship" speed="3.65" length="4.68" shape="357.97,1084.98 358.36,1083.59 359.00,1082.96 359.88,1083.09 361.02,1083.98"/>
    </edge>
    <edge id=":11310367_3" function="internal">
        <lane id=":11310367_3_0" index="0" disallow="pedestrian bicycle tram rail_urban rail rail_electric rail_fast ship" speed="4.51" length="6.28" shape="352.09,1051.05 352.77,1053.82 353.41,1055.51 354.02,1056.13 354.60,1055.66"/>
    </edge>
    <edge id=":11310367_4" function="internal">
        <lane id=":11310367_4_0" index="0" disallow="pedestrian tram rail_urban rail rail_electric rail_fast ship" speed="13.89" length="34.14" shape="352.09,1051.05 353.67,1057.60 356.28,1067.60 359.02,1077.55 361.02,1083.98"/>
    </edge>
    <edge id=":11310367_5" function="internal">
        <lane id=":11310367_5_0" index="0" disallow="pedestrian tram rail_urban rail rail_electric rail_fast ship" speed="3.65" length="4.67" shape="352.09,1051.05 351.55,1052.38 350.85,1052.94 349.99,1052.71 348.96,1051.70"/>
    </edge>
    <edge id=":11310367_6" function="internal">
        <lane id=":11310367_6_0" index="0" disallow="pedestrian bicycle tram rail_urban rail rail_electric rail_fast ship" speed="13.89" length="25.84" shape="350.49,1081.26 351.50,1071.85 351.35,1064.67 350.38,1058.39 349.79,1055.61"/>
    </edge>
    <edge id=":11310367_7" function="internal">
        <lane id=":11310367_7_0" index="0" disallow="pedestrian bicycle tram rail_urban rail rail_electric rail_fast ship" speed="13.89" length="26.26" shape="350.49,1081.26 351.29,1073.09 351.46,1066.93 352.17,1061.54 354.60,1055.66"/>
        <lane id=":11310367_7_1" index="1" disallow="pedestrian bicycle tram rail_urban rail rail_electric rail_fast ship" speed="13.89" length="26.26" shape="353.37,1082.07 354.60,1073.90 354.87,1067.69 355.53,1062.23 357.90,1056.33"/>
    </edge>
    <edge id=":11310367_9" function="internal">
        <lane id=":11310367_9_0" index="0" disallow="pedestrian bicycle tram rail_urban rail rail_electric rail_fast ship" speed="6.36" length="15.08" shape="353.37,1082.07 354.82,1077.87 356.58,1076.79 358.64,1078.83 361.02,1083.98"/>
    </edge>
    <edge id=":11310367_10" function="internal">
        <lane id=":11310367_10_0" index="0" disallow="pedestrian bicycle tram rail_urban rail rail_electric rail_fast ship" speed="13.89" length="4.00" shape="349.79,1055.61 348.96,1051.70"/>
    </edge>
    <edge id=":11310367_c0" function="crossing" crossingEdges="27222780#0">
        <lane id=":11310367_c0_0" index="0" allow="pedestrian" speed="1.00" length="6.48" width="4.00" shape="352.23,1056.62 358.32,1058.86"/>
    </edge>
    <edge id=":11310367_c1" function="crossing" crossingEdges="-100177591 100177591">
        <lane id=":11310367_c1_0" index="0" allow="pedestrian" speed="1.00" length="6.40" width="4.00" shape="347.80,1053.99 354.07,1052.68"/>
    </edge>
    <edge id=":11310367_w0" function="walkingarea">
        <lane id=":11310367_w0_0" index="0" allow="pedestrian" speed="1.00" length="2.97" width="4.00" shape="361.41,1056.95 358.60,1055.89 359.01,1056.98 358.27,1059.82 357.87,1063.21 358.09,1067.26 358.94,1071.97 360.42,1077.36"/>
    </edge>
    <edge id=":11310367_w1" function="walkingarea">
        <lane id=":11310367_w1_0" index="0" allow="pedestrian" speed="1.00" length="18.98" width="4.00" shape="347.39,1052.03 345.43,1052.44 345.99,1080.22 348.96,1080.68 349.78,1074.88 350.17,1070.29 350.10,1066.47 349.60,1062.67 348.69,1058.11"/>
    </edge>
    <edge id=":11310367_w2" function="walkingarea">
        <lane id=":11310367_w2_0" index="0" allow="pedestrian" speed="1.00" length="4.35" width="4.00" shape="354.48,1054.63 353.66,1050.72 352.92,1054.74 351.54,1058.50"/>
    </edge>
    <edge id=":11310368_0" function="internal">
        <lane id=":11310368_0_0" index="0" disallow="pedestrian tram rail_urban rail rail_electric rail_fast ship" speed="3.65" length="4.67" shape="277.14,868.39 277.44,866.98 278.04,866.31 278.93,866.39 280.12,867.21"/>
    </edge>
    <edge id=":11401594536_0" function="internal">
        <lane id=":11401594536_0_0" index="0" allow="pedestrian delivery bicycle" speed="5.56" length="5.00" shape="654.56,1132.64 649.92,1134.50"/>
    </edge>
    <edge id=":11401594536_1" function="internal">
        <lane id=":11401594536_1_0" index="0" allow="pedestrian delivery bicycle" speed="3.65" length="4.67" shape="654.56,1132.64 653.15,1132.34 652.48,1131.75 652.55,1130.86 653.37,1129.67"/>
    </edge>
    <edge id=":11401594536_2" function="internal">
        <lane id=":11401594536_2_0" index="0" allow="pedestrian delivery bicycle" speed="5.56" length="5.00" shape="648.73,1131.53 653.37,1129.67"/>
    </edge>
    <edge id=":11401594536_3" function="internal">
        <lane id=":11401594536_3_0" index="0" allow="pedestrian delivery bicycle" speed="3.65" length="4.67" shape="648.73,1131.53 650.14,1131.82 650.81,1132.42 650.73,1133.31 649.92,1134.50"/>
    </edge>
    <edge id=":11401594536_w0" function="walkingarea">
        <lane id=":11401594536_w0_0" index="0" allow="pedestrian" speed="1.00" length="4.99" width="3.20" shape="655.15,1134.12 653.96,1131.15 653.96,1131.15 652.77,1128.18 650.78,1127.32 648.94,1128.10 648.13,1130.04 649.32,1133.01 649.32,1133.01 650.51,1135.98"/>
    </edge>
    <edge id=":11401594543_w0" function="walkingarea">
        <lane id=":11401594543_w0_0" index="0" allow="pedestrian" speed="1.00" length="3.68" width="2.00" shape="446.80,1313.46 448.67,1312.73 446.84,1308.08 444.98,1308.81 444.90,1310.44 445.59,1312.31 446.66,1313.09 446.53,1312.75 446.38,1312.49 446.18,1312.31 445.93,1312.24"/>
    </edge>
    <edge id=":1227896819_0" function="internal">
        <lane id=":1227896819_0_0" index="0" allow="pedestrian delivery bicycle" speed="3.65" length="4.67" shape="909.24,1109.38 909.58,1107.98 910.19,1107.33 911.08,1107.43 912.24,1108.28"/>
    </edge>
    <edge id=":1290733016_0" function="internal">
        <lane id=":1290733016_0_0" index="0" allow="bicycle" speed="5.56" length="6.82" width="1.00" shape="355.70,1637.20 354.24,1635.86 352.79,1635.32 351.49,1634.71 350.52,1633.13"/>
    </edge>
    <edge id=":1290733016_w0" function="walkingarea">
        <lane id=":1290733016_w0_0" index="0" allow="pedestrian" speed="1.00" length="4.77" width="2.00" shape="350.05,1633.82 349.15,1635.61 349.03,1636.77 349.71,1638.65 353.76,1638.82 355.39,1637.66 354.31,1636.44 353.31,1635.88 352.34,1635.55 351.44,1635.18 350.66,1634.51"/>
    </edge>
    <edge id=":1290733168_0" function="internal">
        <lane id=":1290733168_0_0" index="0" allow="bicycle" speed="5.56" length="5.29" width="1.00" shape="363.05,1658.56 363.20,1657.05 362.98,1656.01 362.53,1654.98 362.00,1653.50"/>
    </edge>
    <edge id=":1290733168_w0" function="walkingarea">
        <lane id=":1290733168_w0_0" index="0" allow="pedestrian" speed="1.00" length="4.00" width="2.00" shape="361.52,1653.63 359.59,1654.17 358.38,1656.17 359.03,1658.06 360.48,1658.65 362.44,1659.05 362.70,1657.43 362.66,1656.66 362.47,1656.03 362.19,1655.40 361.86,1654.65"/>
    </edge>
    <edge id=":1290733314_0" function="internal">
        <lane id=":1290733314_0_0" index="0" allow="bicycle" speed="5.56" length="8.32" width="1.00" shape="376.00,1667.37 377.93,1668.93 379.35,1669.96 380.48,1671.20 381.56,1673.35"/>
    </edge>
    <edge id=":1290733314_w0" function="walkingarea">
        <lane id=":1290733314_w0_0" index="0" allow="pedestrian" speed="1.00" length="7.90" width="2.00" shape="382.02,1673.16 383.88,1672.42 379.62,1662.42 377.71,1663.01 377.67,1665.52 376.33,1667.00 377.73,1668.16 378.84,1668.98 379.76,1669.68 380.55,1670.46 381.28,1671.55"/>
    </edge>
    <edge id=":1290733362_0" function="internal">
        <lane id=":1290733362_0_0" index="0" allow="bicycle" speed="5.56" length="4.40" width="1.00" shape="368.26,1648.68 369.67,1652.85"/>
    </edge>
    <edge id=":1290733362_w0" function="walkingarea">
        <lane id=":1290733362_w0_0" index="0" allow="pedestrian" speed="1.00" length="3.14" width="2.00" shape="370.14,1652.67 372.01,1651.97 371.92,1650.41 371.26,1648.52 370.66,1647.99 368.74,1648.55"/>
    </edge>
    <edge id=":1290733425_w0" function="walkingarea">
        <lane id=":1290733425_w0_0" index="0" allow="pedestrian" speed="1.00" length="2.46" width="2.00" shape="178.30,1150.24 180.19,1149.60 181.60,1149.08 180.88,1147.21 177.70,1148.44 178.42,1150.30 178.30,1150.22 178.33,1150.22 178.37,1150.24 178.41,1150.26 178.43,1150.28"/>
    </edge>
    <edge id=":130348088_0" function="internal">
        <lane id=":130348088_0_0" index="0" allow="pedestrian bicycle" speed="4.42" length="4.04" width="2.00" shape="1066.65,1270.92 1066.11,1269.95 1065.39,1269.40 1064.49,1269.25 1063.42,1269.51"/>
    </edge>
    <edge id=":130348088_1" function="internal">
        <lane id=":130348088_1_0" index="0" allow="pedestrian bicycle" speed="5.56" length="7.00" width="2.00" shape="1066.65,1270.92 1064.15,1264.39"/>
    </edge>
    <edge id=":130348088_2" function="internal">
        <lane id=":130348088_2_0" index="0" allow="pedestrian bicycle" speed="2.89" length="2.92" width="2.00" shape="1066.65,1270.92 1066.85,1270.04 1067.23,1269.63 1067.78,1269.68 1068.52,1270.20"/>
    </edge>
    <edge id=":130348088_3" function="internal">
        <lane id=":130348088_3_0" index="0" allow="pedestrian bicycle" speed="5.56" length="6.99" width="2.00" shape="1066.02,1263.68 1068.52,1270.20"/>
    </edge>
    <edge id=":130348088_4" function="internal">
        <lane id=":130348088_4_0" index="0" allow="pedestrian bicycle" speed="5.56" length="7.26" width="2.00" shape="1066.02,1263.68 1066.45,1265.60 1066.16,1267.21 1065.15,1268.52 1063.42,1269.51"/>
    </edge>
    <edge id=":130348088_5" function="internal">
        <lane id=":130348088_5_0" index="0" allow="pedestrian bicycle" speed="2.89" length="2.92" width="2.00" shape="1066.02,1263.68 1065.82,1264.55 1065.44,1264.97 1064.89,1264.91 1064.15,1264.39"/>
    </edge>
    <edge id=":130348088_6" function="internal">
        <lane id=":130348088_6_0" index="0" allow="pedestrian bicycle" speed="4.48" length="4.07" width="2.00" shape="1062.67,1267.65 1063.65,1267.09 1064.22,1266.36 1064.39,1265.46 1064.15,1264.39"/>
    </edge>
    <edge id=":130348088_7" function="internal">
        <lane id=":130348088_7_0" index="0" allow="pedestrian bicycle" speed="5.56" length="7.30" width="2.00" shape="1062.67,1267.65 1064.62,1267.18 1066.24,1267.45 1067.54,1268.45 1068.52,1270.20"/>
    </edge>
    <edge id=":130348088_8" function="internal">
        <lane id=":130348088_8_0" index="0" allow="pedestrian bicycle" speed="2.89" length="2.92" width="2.00" shape="1062.67,1267.65 1063.56,1267.84 1063.97,1268.21 1063.93,1268.77 1063.42,1269.51"/>
    </edge>
    <edge id=":130348088_w0" function="walkingarea">
        <lane id=":130348088_w0_0" index="0" allow="pedestrian" speed="1.00" length="5.01" width="2.00" shape="1065.72,1271.28 1067.59,1270.56 1067.59,1270.56 1069.45,1269.84 1066.96,1263.32 1065.09,1264.03 1065.09,1264.03 1063.22,1264.74 1062.30,1266.73 1063.05,1268.58 1063.05,1268.58 1063.79,1270.44 1065.52,1270.87 1065.27,1270.56 1064.97,1270.37 1064.62,1270.28 1064.23,1270.31"/>
    </edge>
    <edge id=":130355233_0" function="internal">
        <lane id=":130355233_0_0" index="0" allow="pedestrian delivery bicycle" speed="5.56" length="5.02" shape="799.94,1379.42 795.26,1381.23"/>
    </edge>
    <edge id=":130355233_1" function="internal">
        <lane id=":130355233_1_0" index="0" allow="pedestrian delivery bicycle" speed="3.65" length="4.67" shape="799.94,1379.42 798.53,1379.10 797.87,1378.49 797.96,1377.60 798.80,1376.43"/>
    </edge>
    <edge id=":130355233_2" function="internal">
        <lane id=":130355233_2_0" index="0" allow="pedestrian delivery bicycle" speed="5.56" length="5.05" shape="794.09,1378.26 798.80,1376.43"/>
    </edge>
    <edge id=":130355233_3" function="internal">
        <lane id=":130355233_3_0" index="0" allow="pedestrian delivery bicycle" speed="3.65" length="4.67" shape="794.09,1378.26 795.50,1378.56 796.16,1379.16 796.08,1380.05 795.26,1381.23"/>
    </edge>
    <edge id=":130355233_w0" function="walkingarea">
        <lane id=":130355233_w0_0" index="0" allow="pedestrian" speed="1.00" length="4.99" width="3.20" shape="797.78,1383.57 799.65,1382.85 800.51,1380.91 799.37,1377.92 799.37,1377.92 798.22,1374.93 793.50,1376.77 794.67,1379.75 794.67,1379.75 795.85,1382.72 797.57,1383.14 797.33,1382.83 797.04,1382.63 796.70,1382.55 796.30,1382.58"/>
    </edge>
    <edge id=":130356128_w0" function="walkingarea">
        <lane id=":130356128_w0_0" index="0" allow="pedestrian" speed="1.00" length="4.07" width="2.00" shape="824.15,1451.71 826.00,1450.93 826.83,1449.03 826.14,1447.15 824.12,1446.27 822.26,1446.99 821.39,1448.92 822.10,1450.79 823.92,1451.25 823.66,1450.92 823.36,1450.71 823.00,1450.62 822.59,1450.65"/>
    </edge>
    <edge id=":130356245_0" function="internal">