<?xml version="1.0" encoding="UTF-8"?>

<!-- generated on 2025-12-23 14:07:52 by Eclipse SUMO netedit Version 1.23.1
-->

<additional xmlns:xsi="http://www.w3.org/2001/XMLSchema-instance" xsi:noNamespaceSchemaLocation="http://sumo.dlr.de/xsd/additional_file.xsd">
    <!-- Shapes -->
    <poly id="CIA_0" color="yellow" fill="1" layer="0.00" shape="513.560000,745.130000 533.440000,715.970000 555.060000,732.370000 534.530000,759.280000 513.200000,745.430000 513.560000,745.130000"/>
    <poly id="CIA_1" color="yellow" fill="1" layer="0.00" shape="511.150000,780.020000 514.920000,780.020000 515.400000,768.090000 518.400000,759.760000 512.350000,756.400000 508.870000,766.770000 511.150000,780.020000"/>
    <poly id="CIA_2" color="yellow" fill="1" layer="0.00" shape="558.270000,701.150000 566.240000,692.150000 570.210000,695.240000 561.570000,704.200000 558.080000,701.590000 558.270000,701.150000"/>
</additional>
