<?xml version="1.0" encoding="UTF-8"?>

<!-- generated on 2024-11-10 12:54:58 by Eclipse SUMO netedit Version 1.11.0
<configuration xmlns:xsi="http://www.w3.org/2001/XMLSchema-instance" xsi:noNamespaceSchemaLocation="http://sumo.dlr.de/xsd/netconvertConfiguration.xsd">

    <input>
        <sumo-net-file value="network.net.xml"/>
    </input>

    <output>
        <output-file value="network.net.xml"/>
        <output.street-names value="true"/>
    </output>

    <processing>
        <geometry.min-radius.fix.railways value="false"/>
        <geometry.max-grade.fix value="false"/>
        <offset.disable-normalization value="true"/>
        <lefthand value="false"/>
    </processing>

    <junctions>
        <no-internal-links value="false"/>
        <no-turnarounds value="true"/>
        <junctions.corner-detail value="5"/>
        <junctions.limit-turn-speed value="5.5"/>
        <rectangular-lane-cut value="false"/>
    </junctions>

    <pedestrian>
        <walkingareas value="true"/>
    </pedestrian>

    <netedit>
        <additional-files value="C:\trb25_Occlusion-Modeling\SUMO_example_changed_small_FBO\areas.xml"/>
    </netedit>

    <report>
        <aggregate-warnings value="5"/>
    </report>

</configuration>
-->

<additional xmlns:xsi="http://www.w3.org/2001/XMLSchema-instance" xsi:noNamespaceSchemaLocation="http://sumo.dlr.de/xsd/additional_file.xsd">
    <poly id="poly_0" type="test" color="cyan" fill="0" lineWidth="0.30" layer="0.00" shape="733.544066,1486.390473 756.522831,1477.846023 764.320679,1483.238152 769.878720,1497.838378 766.809354,1504.972579 744.577192,1513.434074 738.936195,1511.277223 731.636082,1491.450779 733.627022,1486.307518 733.544066,1486.390473"/>
    <poly id="poly_1" type="test" color="cyan" fill="0" lineWidth="0.30" layer="0.00" shape="731.962016,1505.774895 732.586938,1507.499680 720.888397,1511.949125 720.288472,1510.224340 731.962016,1505.799892 731.962016,1505.774895"/>
</additional>
