<?xml version="1.0" encoding="UTF-8"?>

<!-- generated on 2026-02-07 03:07:40 by Eclipse SUMO libsumo Version 1.20.0
<configuration xmlns:xsi="http://www.w3.org/2001/XMLSchema-instance" xsi:noNamespaceSchemaLocation="http://sumo.dlr.de/xsd/libsumoConfiguration.xsd">

    <input>
        <net-file value="C:\FTO-Sim\simulation_examples\Intersection-Redesign_Ilic-TR-PartA-2026\SUMO/network/network.net.xml"/>
        <route-files value="C:\FTO-Sim\simulation_examples\Intersection-Redesign_Ilic-TR-PartA-2026\SUMO/demand/50_low_demand.rou.xml"/>
        <additional-files value="C:\FTO-Sim\simulation_examples\Intersection-Redesign_Ilic-TR-PartA-2026\SUMO/additionals/network_additionals.add.xml,C:\FTO-Sim\simulation_examples\Intersection-Redesign_Ilic-TR-PartA-2026\ SUMO/additionals/critical_interaction_areas.add.xml"/>
    </input>

    <time>
        <begin value="0"/>
        <end value="300"/>
        <step-length value="0.1"/>
    </time>

    <processing>
        <lateral-resolution value="0.75"/>
        <ignore-route-errors value="true"/>
    </processing>

    <routing>
        <device.rerouting.adaptation-steps value="18"/>
        <device.rerouting.adaptation-interval value="10"/>
    </routing>

    <report>
        <verbose value="true"/>
        <no-warnings value="true"/>
        <message-log value="NUL"/>
        <duration-log.statistics value="true"/>
        <no-step-log value="true"/>
    </report>

    <random_number>
        <seed value="18"/>
    </random_number>

    <gui_only>
        <gui-settings-file value="C:\FTO-Sim\simulation_examples\Intersection-Redesign_Ilic-TR-PartA-2026\SUMO/gui/gui_settings.xml"/>
    </gui_only>

</configuration>
-->

<SSMLog>
    <conflict begin="14.40" end="49.70" ego="flow_52.0" foe="flow_53.0">
        <minTTC time="31.20" position="463.52,668.95" type="111" value="0.00" speed="5.14"/>
        <maxDRAC time="31.10" position="463.13,668.61" type="3" value="7.14" speed="5.16"/>
        <PET time="NA" position="NA" type="NA" value="NA" speed="NA"/>
        <minPPET time="NA" position="NA" type="NA" value="NA" speed="NA"/>
        <maxMDRAC time="30.10" position="459.27,665.23" type="3" value="17.34" speed="5.10"/>
    </conflict>
    <globalMeasures ego="flow_50.0">
        <timeSpan values="11.50 11.60 11.70 11.80 11.90 12.00 12.10 12.20 12.30 12.40 12.50 12.60 12.70 12.80 12.90 13.00 13.10 13.20 13.30 13.40 13.50 13.60 13.70 13.80 13.90 14.00 14.10 14.20 14.30 14.40 14.50 14.60 14.70 14.80 14.90 15.00 15.10 15.20 15.30 15.40 15.50 15.60 15.70 15.80 15.90 16.00 16.10 16.20 16.30 16.40 16.50 16.60 16.70 16.80 16.90 17.00 17.10 17.20 17.30 17.40 17.50 17.60 17.70 17.80 17.90 18.00 18.10 18.20 18.30 18.40 18.50 18.60 18.70 18.80 18.90 19.00 19.10 19.20 19.30 19.40 19.50 19.60 19.70 19.80 19.90 20.00 20.10 20.20 20.30 20.40 20.50 20.60 20.70 20.80 20.90 21.00 21.10 21.20 21.30 21.40 21.50 21.60 21.70 21.80 21.90 22.00 22.10 22.20 22.30 22.40 22.50 22.60 22.70 22.80 22.90 23.00 23.10 23.20 23.30 23.40 23.50 23.60 23.70 23.80 23.90 24.00 24.10 24.20 24.30 24.40 24.50 24.60 24.70 24.80 24.90 25.00 25.10 25.20 25.30 25.40 25.50 25.60 25.70 25.80 25.90 26.00 26.10 26.20 26.30 26.40 26.50 26.60 26.70 26.80 26.90 27.00 27.10 27.20 27.30 27.40 27.50 27.60 27.70 27.80 27.90 28.00 28.10 28.20 28.30 28.40 28.50 28.60 28.70 28.80 28.90 29.00 29.10 29.20 29.30 29.40 29.50 29.60 29.70 29.80 29.90 30.00 30.10 30.20 30.30 30.40 30.50 30.60 30.70 30.80 30.90 31.00 31.10 31.20 31.30 31.40 31.50 31.60 31.70 31.80 31.90 32.00 32.10 32.20 32.30 32.40 32.50 32.60 32.70 32.80 32.90 33.00 33.10 33.20 33.30 33.40 33.50 33.60 33.70 33.80 33.90 34.00 34.10 34.20 34.30 34.40 34.50 34.60 34.70 34.80 34.90 35.00 35.10 35.20 35.30 35.40 35.50 35.60 35.70 35.80 35.90 36.00 36.10 36.20 36.30 36.40 36.50 36.60 36.70 36.80 36.90 37.00 37.10 37.20 37.30 37.40 37.50 37.60 37.70 37.80 37.90 38.00 38.10 38.20 38.30 38.40 38.50 38.60 38.70 38.80 38.90 39.00 39.10 39.20 39.30 39.40 39.50 39.60 39.70 39.80 39.90 40.00 40.10 40.20 40.30 40.40 40.50 40.60 40.70 40.80 40.90 41.00 41.10 41.20 41.30 41.40 41.50 41.60 41.70 41.80 41.90 42.00 42.10 42.20 42.30 42.40 42.50 42.60 42.70 42.80 42.90 43.00 43.10 43.20 43.30 43.40 43.50 43.60 43.70 43.80 43.90 44.00 44.10 44.20 44.30 44.40 44.50 44.60 44.70 44.80 44.90 45.00 45.10 45.20 45.30 45.40 45.50 45.60 45.70 45.80 45.90 46.00 46.10 46.20 46.30 46.40 46.50 46.60 46.70 46.80 46.90 47.00 47.10 47.20 47.30 47.40 47.50 47.60 47.70 47.80 47.90 48.00 48.10 48.20 48.30 48.40 48.50 48.60 48.70 48.80 48.90 49.00 49.10 49.20 49.30 49.40 49.50 49.60 49.70 49.80 49.90 50.00 50.10 50.20 50.30 50.40 50.50 50.60 50.70 50.80 50.90 51.00 51.10 51.20 51.30 51.40 51.50"/>
        <BRSpan values="0.00 0.00 0.00 0.00 0.00 0.00 0.00 0.00 0.00 0.00 0.00 0.00 0.00 0.00 0.00 0.00 0.00 0.00 0.00 0.00 0.00 0.00 0.00 0.00 0.00 0.00 0.00 0.00 0.00 0.00 0.00 0.00 0.00 0.00 0.00 0.00 0.00 0.00 0.00 0.00 0.00 0.00 0.00 0.00 0.00 0.00 0.00 0.00 0.00 0.00 0.00 0.00 0.00 0.00 0.00 0.00 0.00 0.00 0.00 0.00 0.00 0.00 0.00 0.00 0.00 0.00 0.32 0.00 0.00 0.00 0.49 0.00 0.44 0.00 0.01 0.18 0.22 0.00 0.15 0.00 0.33 0.00 0.44 0.00 0.00 0.45 0.00 0.25 0.00 0.00 0.29 0.00 0.00 0.25 0.15 0.00 0.13 0.15 0.28 0.00 0.04 0.26 0.00 0.31 0.00 0.00 0.00 0.27 0.00 0.14 0.06 0.25 0.00 0.05 0.02 0.07 0.00 0.00 0.01 0.00 0.00 0.00 0.17 0.16 0.06 0.00 0.00 0.19 0.00 0.33 0.00 0.00 0.42 0.00 0.37 0.00 0.04 0.06 0.14 0.00 0.09 0.00 0.01 0.00 0.28 0.00 0.00 0.34 0.00 0.30 0.00 0.29 0.00 0.00 0.24 0.00 0.39 0.00 0.00 0.00 0.39 0.00 0.19 0.00 0.52 0.00 0.00 0.33 0.00 0.42 0.00 0.00 0.44 0.00 0.04 0.00 0.22 0.00 0.34 0.00 0.00 0.00 0.00 0.04 0.23 0.00 0.00 0.04 0.04 0.30 0.00 0.00 0.27 0.00 0.00 0.17 0.25 0.00 0.24 0.00 0.24 2.09 3.00 3.00 0.00 0.00 0.00 0.00 0.00 0.00 0.00 0.00 0.43 0.00 0.30 0.00 0.32 0.00 0.05 0.11 0.00 0.00 0.26 0.00 0.02 0.15 0.00 0.47 0.00 0.19 0.03 0.08 0.00 0.38 0.00 0.00 0.00 0.05 0.00 0.00 0.21 0.28 0.00 0.19 0.09 0.00 0.14 0.00 0.00 0.18 0.00 0.21 0.14 0.00 0.24 0.00 0.09 0.00 0.04 0.00 0.00 0.00 0.28 0.02 0.00 0.24 0.14 0.00 0.00 0.00 0.53 0.00 0.00 0.01 0.00 0.05 0.00 0.60 0.00 0.00 0.40 0.00 0.00 0.02 0.33 0.06 0.00 0.00 0.53 0.00 0.00 0.00 0.03 0.05 0.11 0.00 0.38 0.00 0.23 0.03 0.00 0.26 0.00 0.38 0.12 0.00 0.29 0.00 0.10 0.00 0.00 0.00 0.21 0.00 0.00 0.36 0.00 0.11 0.01 0.00 0.00 0.20 0.06 0.02 0.00 0.00 0.48 0.00 0.00 0.40 0.00 0.00 0.00 0.00 0.54 0.00 0.00 0.03 0.11 0.06 0.20 0.00 0.00 0.49 0.00 0.00 0.24 0.00 0.20 0.04 0.12 0.00 0.12 0.00 0.52 0.00 0.53 0.00 0.00 0.09 0.02 0.00 0.42 0.00 0.20 0.00 0.03 0.00 0.31 0.00 0.49 0.00 0.14 0.00 0.00 0.12 0.24 0.00 0.16 0.00 0.32 0.00 0.00 0.20 0.00 0.39 0.00 0.35 0.00 0.26 0.00 0.04 0.22 0.00 0.12 0.06 0.15 0.00 0.00 0.10 0.00"/>
        <maxBR time="31.70" position="555.63,697.20" value="3.00"/>
        <SGAPSpan values="0.80 1.14 1.50 1.86 2.23 2.61 3.00 3.40 3.81 4.24 4.66 5.10 5.54 5.99 6.44 6.91 7.39 7.88 8.39 8.90 9.43 9.98 10.54 11.11 11.69 12.28 12.87 13.47 14.08 14.68 15.31 15.94 16.58 17.23 17.90 18.58 19.26 19.96 20.67 21.38 22.12 22.87 23.62 24.40 25.18 25.98 26.79 27.61 28.43 29.27 30.11 30.97 31.84 32.71 33.60 34.50 35.41 36.33 37.26 38.19 39.10 40.00 40.90 41.79 42.67 43.56 44.45 45.32 46.21 47.08 47.96 48.84 49.73 50.61 51.48 52.32 53.11 53.86 54.56 55.22 55.83 56.40 56.92 57.40 57.83 58.22 58.57 58.86 59.12 59.32 59.49 59.61 59.68 59.71 59.77 59.84 59.95 60.08 60.24 NA NA NA NA NA NA NA NA NA NA NA NA NA NA NA NA NA NA NA NA NA NA NA NA NA NA NA NA NA NA NA NA NA NA NA NA NA NA NA NA NA NA NA NA NA NA NA NA NA NA NA NA NA NA NA NA NA NA NA NA NA NA NA NA NA NA NA NA NA NA NA NA NA NA NA NA NA NA NA NA NA NA NA NA NA NA NA NA NA NA NA NA NA NA NA NA NA NA NA NA NA NA NA NA NA NA NA NA NA NA NA NA NA NA NA NA NA NA NA NA NA NA NA NA NA NA NA NA NA NA NA NA NA NA NA NA NA NA NA NA NA NA NA NA NA NA NA NA NA NA NA NA NA NA NA NA NA NA NA NA NA NA NA NA NA NA NA NA NA NA NA NA NA NA NA NA NA NA NA NA NA NA NA NA NA NA NA NA NA NA NA NA NA NA NA NA NA NA NA NA NA NA NA NA NA NA NA NA NA NA NA NA NA NA NA NA NA NA NA NA NA NA NA NA NA NA NA NA NA NA NA NA NA NA NA NA NA NA NA NA NA NA NA NA NA NA NA NA NA NA NA NA NA NA NA NA NA NA NA NA NA NA NA NA NA NA NA NA NA NA NA NA NA NA NA NA NA NA NA NA NA NA NA NA NA NA NA NA NA NA NA NA NA NA NA NA NA NA NA NA NA NA"/>
        <minSGAP time="11.50" position="536.71,603.21" value="0.80" leader="flow_0.0"/>
        <TGAPSpan values="NA 9.92 6.59 5.64 5.12 4.89 4.76 4.53 4.59 4.56 4.47 4.58 4.53 4.50 4.52 4.59 4.72 4.82 4.86 4.92 5.02 5.06 5.15 5.22 5.25 5.24 5.29 5.32 5.32 5.37 5.39 5.43 5.45 5.45 5.51 5.61 5.63 5.71 5.78 5.79 5.86 5.93 6.02 6.12 6.21 6.31 6.37 6.40 6.42 6.51 6.56 6.61 6.64 6.66 6.72 6.77 6.82 6.85 6.89 6.97 6.99 7.05 7.11 7.15 7.26 7.39 7.58 7.73 7.82 7.96 8.18 8.25 8.47 8.56 8.71 8.88 9.05 9.14 9.28 9.37 9.52 9.54 9.70 9.75 9.78 9.93 9.91 10.00 10.02 10.04 10.12 10.12 10.11 10.16 10.20 10.11 10.15 10.20 10.27 NA NA NA NA NA NA NA NA NA NA NA NA NA NA NA NA NA NA NA NA NA NA NA NA NA NA NA NA NA NA NA NA NA NA NA NA NA NA NA NA NA NA NA NA NA NA NA NA NA NA NA NA NA NA NA NA NA NA NA NA NA NA NA NA NA NA NA NA NA NA NA NA NA NA NA NA NA NA NA NA NA NA NA NA NA NA NA NA NA NA NA NA NA NA NA NA NA NA NA NA NA NA NA NA NA NA NA NA NA NA NA NA NA NA NA NA NA NA NA NA NA NA NA NA NA NA NA NA NA NA NA NA NA NA NA NA NA NA NA NA NA NA NA NA NA NA NA NA NA NA NA NA NA NA NA NA NA NA NA NA NA NA NA NA NA NA NA NA NA NA NA NA NA NA NA NA NA NA NA NA NA NA NA NA NA NA NA NA NA NA NA NA NA NA NA NA NA NA NA NA NA NA NA NA NA NA NA NA NA NA NA NA NA NA NA NA NA NA NA NA NA NA NA NA NA NA NA NA NA NA NA NA NA NA NA NA NA NA NA NA NA NA NA NA NA NA NA NA NA NA NA NA NA NA NA NA NA NA NA NA NA NA NA NA NA NA NA NA NA NA NA NA NA NA NA NA NA NA NA NA NA NA NA NA NA NA NA NA NA NA NA NA NA NA NA NA NA NA NA NA NA NA"/>
        <minTGAP time="12.50" position="537.32,603.74" value="4.47" leader="flow_0.0"/>
    </globalMeasures>
    <conflict begin="14.40" end="52.50" ego="flow_53.0" foe="flow_52.0">
        <minTTC time="31.20" position="463.52,668.95" type="111" value="0.00" speed="6.36"/>
        <maxDRAC time="31.10" position="463.13,668.61" type="2" value="7.14" speed="6.35"/>
        <PET time="NA" position="NA" type="NA" value="NA" speed="NA"/>
        <minPPET time="NA" position="NA" type="NA" value="NA" speed="NA"/>
        <maxMDRAC time="30.10" position="459.27,665.23" type="2" value="17.34" speed="6.38"/>
    </conflict>
    <conflict begin="36.80" end="55.80" ego="flow_53.0" foe="flow_63.0">
        <minTTC time="37.10" position="536.84,727.11" type="11" value="8.87" speed="6.34"/>
        <maxDRAC time="38.50" position="537.40,726.78" type="10" value="0.26" speed="6.34"/>
        <PET time="NA" position="NA" type="NA" value="NA" speed="NA"/>
        <minPPET time="37.10" position="536.84,727.11" type="111" value="-0.42" speed="6.34"/>
        <maxMDRAC time="37.10" position="536.84,727.11" type="11" value="0.40" speed="6.34"/>
    </conflict>
    <conflict begin="36.80" end="55.80" ego="flow_53.0" foe="flow_64.0">
        <minTTC time="38.70" position="537.45,726.71" type="10" value="12.86" speed="6.33"/>
        <maxDRAC time="36.80" position="536.84,727.11" type="11" value="0.33" speed="6.33"/>
        <PET time="NA" position="NA" type="NA" value="NA" speed="NA"/>
        <minPPET time="38.70" position="537.45,726.71" type="111" value="-0.08" speed="6.33"/>
        <maxMDRAC time="38.70" position="537.45,726.71" type="10" value="0.18" speed="6.33"/>
    </conflict>
    <conflict begin="36.20" end="51.30" ego="flow_51.0" foe="flow_41.0">
        <minTTC time="36.20" position="542.53,723.79" type="6" value="12.17" speed="5.95"/>
        <maxDRAC time="36.20" position="542.53,723.79" type="6" value="0.16" speed="5.95"/>
        <PET time="NA" position="NA" type="NA" value="NA" speed="NA"/>
        <minPPET time="36.20" position="542.53,723.79" type="6" value="1.83" speed="5.95"/>
        <maxMDRAC time="36.20" position="542.53,723.79" type="6" value="0.18" speed="5.95"/>
    </conflict>
    <conflict begin="12.30" end="59.70" ego="flow_59.0" foe="flow_58.0">
        <minTTC time="54.20" position="539.32,757.05" type="2" value="2.97" speed="2.95"/>
        <maxDRAC time="54.20" position="539.32,757.05" type="2" value="0.24" speed="2.95"/>
        <PET time="NA" position="NA" type="NA" value="NA" speed="NA"/>
        <minPPET time="NA" position="NA" type="NA" value="NA" speed="NA"/>
        <maxMDRAC time="54.20" position="539.32,757.05" type="2" value="0.37" speed="2.95"/>
    </conflict>
    <conflict begin="44.60" end="55.70" ego="flow_59.0" foe="flow_38.0">
        <minTTC time="NA" position="NA" type="NA" value="NA" speed="NA"/>
        <maxDRAC time="47.10" position="531.68,750.55" type="10" value="0.57" speed="4.55"/>
        <PET time="NA" position="NA" type="NA" value="NA" speed="NA"/>
        <minPPET time="44.70" position="532.72,751.78" type="11" value="0.84" speed="4.56"/>
        <maxMDRAC time="NA" position="NA" type="NA" value="NA" speed="NA"/>
    </conflict>
    <conflict begin="42.60" end="56.90" ego="flow_54.0" foe="flow_3.1.1">
        <minTTC time="46.00" position="545.38,735.97" type="11" value="10.57" speed="5.05"/>
        <maxDRAC time="44.00" position="545.38,735.97" type="11" value="0.19" speed="5.02"/>
        <PET time="NA" position="NA" type="NA" value="NA" speed="NA"/>
        <minPPET time="45.60" position="545.38,735.97" type="111" value="-1.36" speed="5.04"/>
        <maxMDRAC time="46.00" position="545.38,735.97" type="11" value="0.26" speed="5.05"/>
    </conflict>
    <conflict begin="42.60" end="55.10" ego="flow_54.0" foe="flow_33.0">
        <minTTC time="44.20" position="545.19,735.74" type="11" value="12.31" speed="5.05"/>
        <maxDRAC time="42.70" position="545.19,735.74" type="11" value="0.18" speed="5.03"/>
        <PET time="NA" position="NA" type="NA" value="NA" speed="NA"/>
        <minPPET time="43.70" position="545.19,735.74" type="111" value="-2.76" speed="5.03"/>
        <maxMDRAC time="44.20" position="545.19,735.74" type="11" value="0.22" speed="5.05"/>
    </conflict>
    <conflict begin="42.60" end="55.70" ego="flow_54.0" foe="flow_38.0">
        <minTTC time="43.90" position="545.31,735.89" type="11" value="12.63" speed="5.06"/>
        <maxDRAC time="42.70" position="545.31,735.89" type="11" value="0.18" speed="5.03"/>
        <PET time="NA" position="NA" type="NA" value="NA" speed="NA"/>
        <minPPET time="43.40" position="545.31,735.89" type="111" value="-4.10" speed="5.05"/>
        <maxMDRAC time="43.90" position="545.31,735.89" type="11" value="0.22" speed="5.06"/>
    </conflict>
    <conflict begin="36.80" end="63.20" ego="flow_53.0" foe="flow_56.0">
        <minTTC time="NA" position="NA" type="NA" value="NA" speed="NA"/>
        <maxDRAC time="41.40" position="547.94,733.82" type="10" value="0.92" speed="6.35"/>
        <PET time="NA" position="NA" type="NA" value="NA" speed="NA"/>
        <minPPET time="37.20" position="547.00,734.67" type="11" value="0.69" speed="6.36"/>
        <maxMDRAC time="NA" position="NA" type="NA" value="NA" speed="NA"/>
    </conflict>
    <conflict begin="36.80" end="63.20" ego="flow_53.0" foe="flow_57.0">
        <minTTC time="42.00" position="547.64,733.91" type="11" value="5.98" speed="6.33"/>
        <maxDRAC time="42.10" position="547.99,733.86" type="10" value="0.77" speed="6.33"/>
        <PET time="NA" position="NA" type="NA" value="NA" speed="NA"/>
        <minPPET time="37.70" position="547.17,734.54" type="111" value="-0.80" speed="6.37"/>
        <maxMDRAC time="42.00" position="547.64,733.91" type="11" value="0.64" speed="6.33"/>
    </conflict>
    <conflict begin="36.90" end="53.70" ego="flow_53.0" foe="flow_1.0">
        <minTTC time="43.10" position="537.01,726.00" type="11" value="2.78" speed="6.35"/>
        <maxDRAC time="43.70" position="533.55,728.37" type="10" value="2.54" speed="6.33"/>
        <PET time="NA" position="NA" type="NA" value="NA" speed="NA"/>
        <minPPET time="42.40" position="537.01,725.99" type="111" value="-1.32" speed="6.33"/>
        <maxMDRAC time="43.10" position="537.01,726.00" type="11" value="1.79" speed="6.35"/>
    </conflict>
    <conflict begin="36.90" end="64.20" ego="flow_53.0" foe="flow_2.0">
        <minTTC time="NA" position="NA" type="NA" value="NA" speed="NA"/>
        <maxDRAC time="37.30" position="532.59,728.23" type="10" value="0.00" speed="6.33"/>
        <PET time="NA" position="NA" type="NA" value="NA" speed="NA"/>
        <minPPET time="43.70" position="533.55,728.31" type="10" value="0.36" speed="6.33"/>
        <maxMDRAC time="NA" position="NA" type="NA" value="NA" speed="NA"/>
    </conflict>
    <conflict begin="42.60" end="64.20" ego="flow_54.0" foe="flow_2.0">
        <minTTC time="NA" position="NA" type="NA" value="NA" speed="NA"/>
        <maxDRAC time="43.80" position="533.06,728.27" type="10" value="0.55" speed="5.06"/>
        <PET time="63.28" position="533.06,728.27" type="17" value="8.53" speed="4.51"/>
        <minPPET time="42.60" position="536.89,726.09" type="11" value="1.06" speed="5.07"/>
        <maxMDRAC time="NA" position="NA" type="NA" value="NA" speed="NA"/>
    </conflict>
    <conflict begin="37.80" end="65.20" ego="flow_52.0" foe="flow_1.0">
        <minTTC time="44.30" position="542.76,724.03" type="6" value="5.60" speed="5.11"/>
        <maxDRAC time="44.30" position="542.76,724.03" type="6" value="0.46" speed="5.11"/>
        <PET time="NA" position="NA" type="NA" value="NA" speed="NA"/>
        <minPPET time="42.20" position="542.14,723.48" type="111" value="-1.22" speed="5.15"/>
        <maxMDRAC time="44.30" position="542.76,724.03" type="6" value="0.55" speed="5.11"/>
    </conflict>
    <conflict begin="37.80" end="62.50" ego="flow_52.0" foe="flow_2.0">
        <minTTC time="43.80" position="542.53,723.79" type="6" value="6.05" speed="5.15"/>
        <maxDRAC time="43.80" position="542.53,723.79" type="6" value="0.43" speed="5.15"/>
        <PET time="NA" position="NA" type="NA" value="NA" speed="NA"/>
        <minPPET time="43.60" position="542.14,723.48" type="111" value="-1.04" speed="5.10"/>
        <maxMDRAC time="43.80" position="542.53,723.79" type="6" value="0.51" speed="5.15"/>
    </conflict>
    <conflict begin="37.80" end="58.40" ego="flow_52.0" foe="flow_63.0">
        <minTTC time="38.80" position="540.76,722.40" type="6" value="11.04" speed="5.14"/>
        <maxDRAC time="38.80" position="540.76,722.40" type="6" value="0.23" speed="5.14"/>
        <PET time="NA" position="NA" type="NA" value="NA" speed="NA"/>
        <minPPET time="38.80" position="540.76,722.40" type="111" value="-0.31" speed="5.14"/>
        <maxMDRAC time="38.80" position="540.76,722.40" type="6" value="0.26" speed="5.14"/>
    </conflict>
    <globalMeasures ego="flow_51.0">
        <timeSpan values="10.00 10.10 10.20 10.30 10.40 10.50 10.60 10.70 10.80 10.90 11.00 11.10 11.20 11.30 11.40 11.50 11.60 11.70 11.80 11.90 12.00 12.10 12.20 12.30 12.40 12.50 12.60 12.70 12.80 12.90 13.00 13.10 13.20 13.30 13.40 13.50 13.60 13.70 13.80 13.90 14.00 14.10 14.20 14.30 14.40 14.50 14.60 14.70 14.80 14.90 15.00 15.10 15.20 15.30 15.40 15.50 15.60 15.70 15.80 15.90 16.00 16.10 16.20 16.30 16.40 16.50 16.60 16.70 16.80 16.90 17.00 17.10 17.20 17.30 17.40 17.50 17.60 17.70 17.80 17.90 18.00 18.10 18.20 18.30 18.40 18.50 18.60 18.70 18.80 18.90 19.00 19.10 19.20 19.30 19.40 19.50 19.60 19.70 19.80 19.90 20.00 20.10 20.20 20.30 20.40 20.50 20.60 20.70 20.80 20.90 21.00 21.10 21.20 21.30 21.40 21.50 21.60 21.70 21.80 21.90 22.00 22.10 22.20 22.30 22.40 22.50 22.60 22.70 22.80 22.90 23.00 23.10 23.20 23.30 23.40 23.50 23.60 23.70 23.80 23.90 24.00 24.10 24.20 24.30 24.40 24.50 24.60 24.70 24.80 24.90 25.00 25.10 25.20 25.30 25.40 25.50 25.60 25.70 25.80 25.90 26.00 26.10 26.20 26.30 26.40 26.50 26.60 26.70 26.80 26.90 27.00 27.10 27.20 27.30 27.40 27.50 27.60 27.70 27.80 27.90 28.00 28.10 28.20 28.30 28.40 28.50 28.60 28.70 28.80 28.90 29.00 29.10 29.20 29.30 29.40 29.50 29.60 29.70 29.80 29.90 30.00 30.10 30.20 30.30 30.40 30.50 30.60 30.70 30.80 30.90 31.00 31.10 31.20 31.30 31.40 31.50 31.60 31.70 31.80 31.90 32.00 32.10 32.20 32.30 32.40 32.50 32.60 32.70 32.80 32.90 33.00 33.10 33.20 33.30 33.40 33.50 33.60 33.70 33.80 33.90 34.00 34.10 34.20 34.30 34.40 34.50 34.60 34.70 34.80 34.90 35.00 35.10 35.20 35.30 35.40 35.50 35.60 35.70 35.80 35.90 36.00 36.10 36.20 36.30 36.40 36.50 36.60 36.70 36.80 36.90 37.00 37.10 37.20 37.30 37.40 37.50 37.60 37.70 37.80 37.90 38.00 38.10 38.20 38.30 38.40 38.50 38.60 38.70 38.80 38.90 39.00 39.10 39.20 39.30 39.40 39.50 39.60 39.70 39.80 39.90 40.00 40.10 40.20 40.30 40.40 40.50 40.60 40.70 40.80 40.90 41.00 41.10 41.20 41.30 41.40 41.50 41.60 41.70 41.80 41.90 42.00 42.10 42.20 42.30 42.40 42.50 42.60 42.70 42.80 42.90 43.00 43.10 43.20 43.30 43.40 43.50 43.60 43.70 43.80 43.90 44.00 44.10 44.20 44.30 44.40 44.50 44.60 44.70 44.80 44.90 45.00 45.10 45.20 45.30 45.40 45.50 45.60 45.70 45.80 45.90 46.00 46.10 46.20 46.30 46.40 46.50 46.60 46.70 46.80 46.90 47.00 47.10 47.20 47.30 47.40 47.50 47.60 47.70 47.80 47.90 48.00 48.10 48.20 48.30 48.40 48.50 48.60 48.70 48.80 48.90 49.00 49.10 49.20 49.30 49.40 49.50 49.60 49.70 49.80 49.90 50.00 50.10 50.20 50.30 50.40 50.50 50.60 50.70 50.80 50.90 51.00 51.10 51.20 51.30 51.40 51.50 51.60 51.70 51.80 51.90 52.00 52.10 52.20 52.30 52.40 52.50 52.60 52.70 52.80 52.90 53.00 53.10 53.20 53.30 53.40 53.50 53.60 53.70 53.80 53.90 54.00 54.10 54.20 54.30 54.40 54.50 54.60 54.70 54.80 54.90 55.00 55.10 55.20 55.30 55.40 55.50 55.60 55.70 55.80 55.90 56.00 56.10 56.20 56.30 56.40 56.50 56.60 56.70 56.80 56.90 57.00 57.10 57.20 57.30 57.40 57.50 57.60 57.70 57.80 57.90 58.00 58.10 58.20 58.30 58.40 58.50 58.60 58.70 58.80 58.90 59.00 59.10 59.20 59.30 59.40 59.50 59.60 59.70 59.80 59.90 60.00 60.10 60.20 60.30 60.40 60.50 60.60 60.70 60.80 60.90 61.00 61.10 61.20 61.30 61.40 61.50 61.60 61.70 61.80 61.90 62.00 62.10 62.20 62.30 62.40 62.50 62.60 62.70 62.80 62.90 63.00 63.10 63.20 63.30 63.40 63.50 63.60 63.70 63.80 63.90 64.00 64.10 64.20 64.30 64.40 64.50 64.60 64.70 64.80 64.90 65.00 65.10 65.20 65.30 65.40 65.50 65.60 65.70"/>
        <BRSpan values="0.00 0.00 0.00 0.00 0.00 0.00 0.00 0.00 0.00 0.00 0.00 0.00 0.00 0.00 0.00 0.00 0.00 0.00 0.00 0.00 0.00 0.00 0.00 0.00 0.00 0.00 0.00 0.00 0.00 0.00 0.00 0.00 0.00 0.00 0.00 0.00 0.00 0.00 0.00 0.00 0.00 0.00 0.00 0.00 0.00 0.00 0.00 0.00 0.00 0.00 0.00 0.00 0.00 0.00 0.00 0.00 0.00 0.00 0.00 0.00 0.00 0.00 0.00 0.00 0.00 0.00 0.00 0.00 0.51 0.00 0.41 0.00 0.25 0.01 0.00 0.00 0.28 0.00 0.32 0.00 0.00 0.02 0.09 0.00 0.06 0.13 0.00 0.13 0.14 0.25 0.00 0.00 0.31 0.00 0.13 0.00 0.14 0.00 0.00 0.00 0.18 0.25 0.00 0.00 0.00 0.03 0.06 0.20 0.12 0.06 0.03 0.00 0.09 0.00 0.23 0.02 0.00 0.15 0.00 0.00 0.43 0.00 0.00 0.00 0.41 0.00 0.07 0.00 0.22 0.00 0.40 0.15 0.00 0.37 0.00 0.18 0.00 0.32 0.18 0.00 0.29 0.00 0.00 0.23 0.01 0.27 0.00 0.07 0.00 0.15 0.00 0.09 0.17 0.00 0.00 0.27 0.00 0.29 0.00 0.21 0.00 0.29 0.00 0.00 0.09 0.00 0.36 0.06 0.00 0.21 0.00 0.07 0.00 0.48 0.00 0.00 0.31 0.00 0.28 0.00 0.06 0.34 0.00 0.00 0.15 0.00 0.15 0.00 0.42 0.00 0.22 0.00 0.00 0.13 0.26 0.00 0.10 0.13 0.00 0.22 0.00 0.12 0.00 0.41 0.00 0.14 0.00 0.18 0.00 0.00 0.37 0.11 0.00 0.37 0.00 0.31 0.00 0.01 0.03 0.00 0.22 0.01 0.00 0.00 0.00 0.52 0.00 0.00 0.45 0.00 0.00 0.14 0.00 0.01 0.35 0.00 0.41 0.02 0.00 0.22 0.00 0.00 0.35 0.00 0.02 0.00 0.00 0.37 0.00 0.02 0.20 0.00 0.32 0.00 0.04 0.00 0.13 0.00 0.21 0.24 0.00 0.10 0.00 0.13 0.24 0.00 0.00 0.00 0.05 0.12 0.00 0.00 0.10 0.00 0.00 0.33 0.00 0.18 0.37 0.00 0.00 0.00 0.36 0.00 0.22 0.23 0.05 0.00 0.46 0.00 0.50 0.00 0.00 0.19 0.00 0.00 0.36 0.00 0.00 0.03 0.15 0.04 0.14 0.26 2.54 3.00 3.00 3.00 3.00 3.00 0.00 0.00 0.00 0.00 0.00 0.00 0.00 0.00 0.00 0.00 0.00 0.00 0.00 0.00 0.00 0.00 0.00 0.00 0.00 0.00 0.13 0.00 0.45 0.00 0.38 0.00 0.08 0.03 0.00 0.35 0.00 0.00 0.00 0.00 0.13 0.23 0.00 0.00 1.69 2.86 2.75 3.00 2.85 3.00 3.00 3.00 3.00 3.00 0.00 0.00 0.00 0.00 0.00 0.00 0.00 0.00 0.00 0.00 0.00 0.00 0.00 0.00 0.00 0.00 0.00 0.00 0.00 0.00 0.00 0.00 0.00 0.00 0.00 0.00 0.00 0.00 0.00 0.00 0.00 0.00 0.00 0.35 0.00 0.00 0.02 0.25 0.00 0.00 0.32 0.00 0.02 0.00 0.00 0.15 0.00 0.00 0.46 0.02 0.04 0.00 0.13 0.00 0.00 0.00 0.00 0.24 0.00 0.07 0.18 0.07 0.00 0.04 0.41 0.00 0.04 0.00 0.07 0.04 0.08 0.29 0.00 0.29 0.00 0.00 0.50 0.00 0.28 0.00 0.24 0.34 0.00 0.00 0.00 0.00 0.04 0.45 0.00 0.00 0.39 0.00 0.05 0.03 0.00 0.00 0.29 0.00 0.50 0.00 0.00 0.02 0.00 0.14 0.14 0.00 0.03 0.00 0.00 0.17 0.00 0.26 0.00 0.34 0.00 0.36 0.00 0.04 0.00 0.36 0.08 0.00 0.00 0.41 0.00 0.00 0.00 0.30 0.00 0.08 0.00 0.17 0.04 0.00 0.28 0.00 0.11 0.00 0.00 0.00 0.40 0.00 0.03 0.00 0.38 0.00 0.12 0.00 0.00 0.29 0.13 0.00 0.12 0.07 0.19 0.00 0.00 0.00 0.06 0.43 0.00 0.16 0.00 0.18 0.00 0.44 0.00 0.38 0.03 0.00 0.00 0.00 0.06 0.26 0.00 0.00 0.02 0.31 0.00 0.00 0.05 0.00 0.00 0.30 0.01 0.00 0.00 0.00 0.00 0.19 0.00 0.09 0.00 0.44 0.00 0.00 0.00 0.00 0.37 0.00"/>
        <maxBR time="40.50" position="526.81,717.82" value="3.00"/>
        <SGAPSpan values="NA NA NA NA NA NA NA NA NA NA NA NA NA NA NA NA NA NA NA NA NA NA NA NA NA NA NA NA NA NA NA NA NA NA NA NA NA NA NA NA NA NA NA NA NA NA NA NA NA NA NA NA NA NA NA NA NA NA NA NA NA NA NA NA NA NA NA NA NA NA NA NA NA NA NA NA NA NA NA NA NA NA NA NA NA NA NA NA NA NA NA NA NA NA NA NA NA NA NA NA NA NA NA NA NA NA NA NA NA NA NA NA NA NA NA NA NA NA NA NA NA NA NA NA NA NA NA NA NA NA NA NA NA NA NA NA NA NA NA NA NA NA NA NA NA NA NA NA NA NA NA NA NA NA NA NA NA NA NA NA NA NA NA NA NA NA NA NA NA NA NA NA NA NA NA NA NA NA NA NA NA NA NA NA NA NA NA NA NA NA NA NA NA NA NA NA NA NA NA NA NA NA NA NA NA NA NA NA NA NA NA NA NA NA NA NA NA NA NA NA NA NA NA NA NA NA NA NA NA NA NA NA NA NA NA NA NA NA NA NA NA NA NA NA NA NA NA NA NA NA NA NA NA NA NA NA NA NA NA NA NA NA NA NA NA NA NA NA NA NA NA NA NA NA NA NA NA NA NA NA NA NA NA NA NA NA NA NA NA NA NA NA NA NA NA NA NA NA NA NA NA NA NA NA NA NA NA NA NA NA NA NA NA NA NA NA NA NA NA NA NA NA NA NA NA NA NA NA NA NA NA NA NA NA NA NA NA NA NA NA NA NA NA NA NA NA NA NA NA NA NA NA NA NA NA NA NA NA NA NA NA NA NA NA NA NA NA NA NA NA NA NA NA NA NA NA NA NA NA NA NA NA NA NA NA NA NA NA NA NA NA NA NA NA NA NA NA NA NA NA NA NA NA NA NA NA NA NA NA NA NA NA NA NA NA NA NA NA NA NA NA NA NA NA NA NA NA NA NA NA NA NA NA NA NA NA NA NA NA NA NA NA NA NA NA NA NA NA NA NA NA NA NA NA NA NA NA NA NA NA NA NA NA NA NA NA NA NA NA NA NA NA NA NA NA NA NA NA NA NA NA NA NA NA NA NA NA NA NA NA NA NA NA NA NA NA NA NA NA NA NA NA NA NA NA NA NA NA NA NA NA NA NA NA NA NA NA NA NA NA NA NA NA NA NA NA NA NA NA NA NA NA NA NA NA NA NA NA NA NA NA NA NA NA NA NA NA NA NA NA NA NA NA NA NA NA NA NA"/>
        <TGAPSpan values="NA NA NA NA NA NA NA NA NA NA NA NA NA NA NA NA NA NA NA NA NA NA NA NA NA NA NA NA NA NA NA NA NA NA NA NA NA NA NA NA NA NA NA NA NA NA NA NA NA NA NA NA NA NA NA NA NA NA NA NA NA NA NA NA NA NA NA NA NA NA NA NA NA NA NA NA NA NA NA NA NA NA NA NA NA NA NA NA NA NA NA NA NA NA NA NA NA NA NA NA NA NA NA NA NA NA NA NA NA NA NA NA NA NA NA NA NA NA NA NA NA NA NA NA NA NA NA NA NA NA NA NA NA NA NA NA NA NA NA NA NA NA NA NA NA NA NA NA NA NA NA NA NA NA NA NA NA NA NA NA NA NA NA NA NA NA NA NA NA NA NA NA NA NA NA NA NA NA NA NA NA NA NA NA NA NA NA NA NA NA NA NA NA NA NA NA NA NA NA NA NA NA NA NA NA NA NA NA NA NA NA NA NA NA NA NA NA NA NA NA NA NA NA NA NA NA NA NA NA NA NA NA NA NA NA NA NA NA NA NA NA NA NA NA NA NA NA NA NA NA NA NA NA NA NA NA NA NA NA NA NA NA NA NA NA NA NA NA NA NA NA NA NA NA NA NA NA NA NA NA NA NA NA NA NA NA NA NA NA NA NA NA NA NA NA NA NA NA NA NA NA NA NA NA NA NA NA NA NA NA NA NA NA NA NA NA NA NA NA NA NA NA NA NA NA NA NA NA NA NA NA NA NA NA NA NA NA NA NA NA NA NA NA NA NA NA NA NA NA NA NA NA NA NA NA NA NA NA NA NA NA NA NA NA NA NA NA NA NA NA NA NA NA NA NA NA NA NA NA NA NA NA NA NA NA NA NA NA NA NA NA NA NA NA NA NA NA NA NA NA NA NA NA NA NA NA NA NA NA NA NA NA NA NA NA NA NA NA NA NA NA NA NA NA NA NA NA NA NA NA NA NA NA NA NA NA NA NA NA NA NA NA NA NA NA NA NA NA NA NA NA NA NA NA NA NA NA NA NA NA NA NA NA NA NA NA NA NA NA NA NA NA NA NA NA NA NA NA NA NA NA NA NA NA NA NA NA NA NA NA NA NA NA NA NA NA NA NA NA NA NA NA NA NA NA NA NA NA NA NA NA NA NA NA NA NA NA NA NA NA NA NA NA NA NA NA NA NA NA NA NA NA NA NA NA NA NA NA NA NA NA NA NA NA NA NA NA NA NA NA NA NA NA NA NA NA NA NA"/>
    </globalMeasures>
    <conflict begin="49.60" end="66.60" ego="flow_53.1" foe="flow_1.0">
        <minTTC time="NA" position="NA" type="NA" value="NA" speed="NA"/>
        <maxDRAC time="NA" position="NA" type="NA" value="NA" speed="NA"/>
        <PET time="61.17" position="534.05,728.36" type="17" value="1.84" speed="4.38"/>
        <minPPET time="NA" position="NA" type="NA" value="NA" speed="NA"/>
        <maxMDRAC time="NA" position="NA" type="NA" value="NA" speed="NA"/>
    </conflict>
    <conflict begin="12.30" end="66.70" ego="flow_58.0" foe="flow_59.0">
        <minTTC time="54.20" position="539.32,757.05" type="3" value="2.97" speed="1.52"/>
        <maxDRAC time="54.20" position="539.32,757.05" type="3" value="0.24" speed="1.52"/>
        <PET time="NA" position="NA" type="NA" value="NA" speed="NA"/>
        <minPPET time="NA" position="NA" type="NA" value="NA" speed="NA"/>
        <maxMDRAC time="54.20" position="539.32,757.05" type="3" value="0.37" speed="1.52"/>
    </conflict>
    <conflict begin="44.60" end="68.50" ego="flow_59.0" foe="flow_4.0">
        <minTTC time="NA" position="NA" type="NA" value="NA" speed="NA"/>
        <maxDRAC time="44.70" position="532.75,737.32" type="10" value="0.62" speed="4.56"/>
        <PET time="60.18" position="532.90,737.44" type="17" value="1.31" speed="4.93"/>
        <minPPET time="NA" position="NA" type="NA" value="NA" speed="NA"/>