<?xml version="1.0" encoding="UTF-8"?>

<!-- generated on 2026-04-11 18:42:31 by Eclipse SUMO libsumo Version 1.20.0
<configuration xmlns:xsi="http://www.w3.org/2001/XMLSchema-instance" xsi:noNamespaceSchemaLocation="http://sumo.dlr.de/xsd/libsumoConfiguration.xsd">

    <input>
        <net-file value="C:\FTO-Sim\simulation_examples\Intersection-Redesign_Ilic-TR-PartA-2026\SUMO/network/network.net.xml"/>
        <route-files value="C:\FTO-Sim\simulation_examples\Intersection-Redesign_Ilic-TR-PartA-2026\SUMO/demand/high_demand_singleFCO.rou.xml"/>
    </input>

    <time>
        <begin value="0"/>
        <end value="3780"/>
        <step-length value="0.1"/>
    </time>

    <processing>
        <lateral-resolution value="0.75"/>
        <ignore-route-errors value="true"/>
    </processing>

    <routing>
        <device.rerouting.adaptation-steps value="18"/>
        <device.rerouting.adaptation-interval value="10"/>
    </routing>

    <report>
        <verbose value="true"/>
        <no-warnings value="true"/>
        <message-log value="NUL"/>
        <duration-log.statistics value="true"/>
        <no-step-log value="true"/>
    </report>

    <random_number>
        <seed value="18"/>
    </random_number>

    <gui_only>
        <gui-settings-file value="C:\FTO-Sim\simulation_examples\Intersection-Redesign_Ilic-TR-PartA-2026\SUMO/gui/gui_settings.xml"/>
    </gui_only>

</configuration>
-->

<SSMLog>
    <conflict begin="14.40" end="44.50" ego="flow_57.0" foe="flow_55.0">
        <minTTC time="38.10" position="556.01,723.19" type="111" value="0.00" speed="6.62"/>
        <maxDRAC time="38.00" position="556.33,722.78" type="2" value="12.96" speed="6.66"/>
        <PET time="NA" position="NA" type="NA" value="NA" speed="NA"/>
        <minPPET time="NA" position="NA" type="NA" value="NA" speed="NA"/>
        <maxMDRAC time="37.00" position="559.52,718.65" type="2" value="8.23" speed="6.61"/>
    </conflict>
    <globalMeasures ego="flow_50.0">
        <timeSpan values="11.50 11.60 11.70 11.80 11.90 12.00 12.10 12.20 12.30 12.40 12.50 12.60 12.70 12.80 12.90 13.00 13.10 13.20 13.30 13.40 13.50 13.60 13.70 13.80 13.90 14.00 14.10 14.20 14.30 14.40 14.50 14.60 14.70 14.80 14.90 15.00 15.10 15.20 15.30 15.40 15.50 15.60 15.70 15.80 15.90 16.00 16.10 16.20 16.30 16.40 16.50 16.60 16.70 16.80 16.90 17.00 17.10 17.20 17.30 17.40 17.50 17.60 17.70 17.80 17.90 18.00 18.10 18.20 18.30 18.40 18.50 18.60 18.70 18.80 18.90 19.00 19.10 19.20 19.30 19.40 19.50 19.60 19.70 19.80 19.90 20.00 20.10 20.20 20.30 20.40 20.50 20.60 20.70 20.80 20.90 21.00 21.10 21.20 21.30 21.40 21.50 21.60 21.70 21.80 21.90 22.00 22.10 22.20 22.30 22.40 22.50 22.60 22.70 22.80 22.90 23.00 23.10 23.20 23.30 23.40 23.50 23.60 23.70 23.80 23.90 24.00 24.10 24.20 24.30 24.40 24.50 24.60 24.70 24.80 24.90 25.00 25.10 25.20 25.30 25.40 25.50 25.60 25.70 25.80 25.90 26.00 26.10 26.20 26.30 26.40 26.50 26.60 26.70 26.80 26.90 27.00 27.10 27.20 27.30 27.40 27.50 27.60 27.70 27.80 27.90 28.00 28.10 28.20 28.30 28.40 28.50 28.60 28.70 28.80 28.90 29.00 29.10 29.20 29.30 29.40 29.50 29.60 29.70 29.80 29.90 30.00 30.10 30.20 30.30 30.40 30.50 30.60 30.70 30.80 30.90 31.00 31.10 31.20 31.30 31.40 31.50 31.60 31.70 31.80 31.90 32.00 32.10 32.20 32.30 32.40 32.50 32.60 32.70 32.80 32.90 33.00 33.10 33.20 33.30 33.40 33.50 33.60 33.70 33.80 33.90 34.00 34.10 34.20 34.30 34.40 34.50 34.60 34.70 34.80 34.90 35.00 35.10 35.20 35.30 35.40 35.50 35.60 35.70 35.80 35.90 36.00 36.10 36.20 36.30 36.40 36.50 36.60 36.70 36.80 36.90 37.00 37.10 37.20 37.30 37.40 37.50 37.60 37.70 37.80 37.90 38.00 38.10 38.20 38.30 38.40 38.50 38.60 38.70 38.80 38.90 39.00 39.10 39.20 39.30 39.40 39.50 39.60 39.70 39.80 39.90 40.00 40.10 40.20 40.30 40.40 40.50 40.60 40.70 40.80 40.90 41.00 41.10 41.20 41.30 41.40 41.50 41.60 41.70 41.80 41.90 42.00 42.10 42.20 42.30 42.40 42.50 42.60 42.70 42.80 42.90 43.00 43.10 43.20 43.30 43.40 43.50 43.60 43.70 43.80 43.90 44.00 44.10 44.20 44.30 44.40 44.50 44.60 44.70 44.80 44.90 45.00 45.10 45.20 45.30 45.40 45.50 45.60 45.70 45.80 45.90 46.00 46.10 46.20 46.30 46.40 46.50 46.60 46.70 46.80 46.90 47.00 47.10 47.20 47.30 47.40 47.50 47.60 47.70 47.80 47.90 48.00 48.10 48.20 48.30 48.40 48.50 48.60 48.70 48.80 48.90 49.00 49.10 49.20 49.30 49.40 49.50 49.60 49.70 49.80 49.90 50.00 50.10 50.20"/>
        <BRSpan values="0.00 0.00 0.00 0.00 0.00 0.00 0.00 0.00 0.00 0.00 0.00 0.00 0.00 0.00 0.00 0.00 0.00 0.00 0.00 0.00 0.00 0.00 0.00 0.00 0.00 0.00 0.00 0.00 0.00 0.00 0.00 0.00 0.00 0.00 0.00 0.00 0.00 0.00 0.00 0.00 0.00 0.00 0.00 0.00 0.00 0.00 0.00 0.00 0.00 0.00 0.00 0.00 0.00 0.00 0.00 0.00 0.00 0.00 0.12 0.40 0.00 0.31 0.08 0.00 0.10 0.00 0.32 0.00 0.00 0.00 0.49 0.00 0.44 0.00 0.01 0.18 0.22 0.00 0.15 0.00 0.33 0.00 0.44 0.00 0.00 0.45 0.00 0.25 0.00 0.00 0.29 0.00 0.00 0.25 0.15 0.00 0.13 0.15 0.28 0.00 0.30 0.00 0.31 0.00 0.00 0.00 0.27 0.00 0.14 0.06 0.25 0.00 0.05 0.02 0.07 0.00 0.00 0.01 0.00 0.00 0.00 0.17 0.16 0.06 0.00 0.00 0.19 0.00 0.33 0.00 0.00 0.42 0.00 0.37 0.00 0.04 0.06 0.14 0.00 0.09 0.00 0.01 0.00 0.28 0.00 0.00 0.34 0.00 0.30 0.00 0.29 0.00 0.00 0.24 0.00 0.39 0.00 0.00 0.00 0.39 0.00 0.19 0.00 0.52 0.00 0.00 0.33 0.00 0.42 0.00 0.00 0.44 0.00 0.04 0.00 0.22 0.00 0.34 0.00 0.00 0.00 0.00 0.04 0.23 0.00 0.00 0.04 0.04 0.30 0.00 0.00 0.27 0.00 0.00 0.17 0.25 0.00 0.24 0.00 0.24 0.00 0.52 0.00 0.00 0.04 0.00 0.32 0.00 0.47 0.06 0.00 0.06 0.33 0.00 0.00 0.05 0.21 0.01 0.00 0.44 0.00 0.53 0.00 0.12 1.12 0.00 0.00 0.00 0.00 0.00 0.00 0.00 0.00 0.24 0.10 0.00 0.00 0.00 0.20 0.00 0.18 0.00 0.17 0.00 0.02 0.30 0.00 0.18 0.11 0.09 0.06 0.00 0.19 0.03 0.08 0.00 0.38 0.00 0.00 0.00 0.05 0.00 0.00 0.21 0.28 0.00 0.19 0.09 0.00 0.14 0.00 0.00 0.18 0.00 0.21 0.14 0.00 0.24 0.00 0.09 0.00 0.04 0.00 0.00 0.00 0.28 0.02 0.00 0.24 0.14 0.00 0.00 0.00 0.53 0.00 0.00 0.01 0.00 0.05 0.00 0.60 0.00 0.00 0.40 0.00 0.00 0.02 0.33 0.06 0.00 0.00 0.53 0.00 0.00 0.00 0.03 0.05 0.11 0.00 0.38 0.00 0.23 0.03 0.00 0.26 0.00 0.38 0.12 0.00 0.29 0.00 0.10 0.00 0.00 0.00 0.21 0.00 0.00 0.36 0.00 0.11 0.01 0.00 0.00 0.20 0.06 0.02 0.00 0.00 0.48 0.00 0.00 0.40 0.00 0.00 0.00 0.00 0.54 0.00 0.00 0.03 0.11 0.06 0.20 0.00 0.00 0.49 0.00 0.00 0.24 0.00 0.20 0.04 0.12 0.00 0.12 0.00 0.52 0.00 0.53 0.00 0.00 0.09 0.02 0.00 0.42 0.00 0.20"/>
        <maxBR time="33.90" position="556.11,697.28" value="1.12"/>
        <SGAPSpan values="0.80 1.14 1.50 1.86 2.23 2.61 3.00 3.40 3.81 4.24 4.66 5.10 5.54 5.99 6.44 6.91 7.39 7.88 8.39 8.90 9.43 9.98 10.54 11.11 11.69 12.28 12.87 13.47 14.08 14.68 15.31 15.94 16.58 17.23 17.90 18.58 19.26 19.96 20.67 21.38 22.12 22.87 23.62 24.40 25.18 25.98 26.79 27.61 28.43 29.27 30.11 30.97 31.84 32.71 33.60 34.50 35.40 36.30 37.20 38.11 39.00 39.91 40.82 41.72 42.63 43.53 44.44 45.34 46.24 47.13 48.04 48.94 49.84 50.75 51.64 52.55 53.44 54.29 55.10 55.87 56.59 57.26 57.90 58.48 59.02 59.52 59.97 60.38 60.74 61.05 61.33 61.55 61.73 61.87 62.03 62.22 62.43 62.67 62.94 63.23 NA NA NA NA NA NA NA NA NA NA NA NA NA NA NA NA NA NA NA NA NA NA NA NA NA NA NA NA NA NA NA NA NA NA NA NA NA NA NA NA NA NA NA NA NA NA NA NA NA NA NA NA NA NA NA NA NA NA NA NA NA NA NA NA NA NA NA NA NA NA NA NA NA NA NA NA NA NA NA NA NA NA NA NA NA NA NA NA NA NA NA NA NA NA NA NA NA NA NA NA NA NA NA NA NA NA NA NA NA NA NA NA NA NA NA NA NA NA NA NA NA NA NA NA NA NA NA NA NA NA NA NA NA NA NA NA NA NA NA NA NA NA NA NA NA NA NA NA NA NA NA NA NA NA NA NA NA NA NA NA NA NA NA NA NA NA NA NA NA NA NA NA NA NA NA NA NA NA NA NA NA NA NA NA NA NA NA NA NA NA NA NA NA NA NA NA NA NA NA NA NA NA NA NA NA NA NA NA NA NA NA NA NA NA NA NA NA NA NA NA NA NA NA NA NA NA NA NA NA NA NA NA NA NA NA NA NA NA NA NA NA NA NA NA NA NA NA NA NA NA NA NA NA NA NA NA NA NA NA NA NA NA NA NA NA NA NA NA NA NA NA NA NA NA NA NA NA NA NA NA NA NA NA NA NA NA NA NA"/>
        <minSGAP time="11.50" position="536.71,603.21" value="0.80" leader="flow_0.0"/>
        <TGAPSpan values="NA 9.92 6.59 5.64 5.12 4.89 4.76 4.53 4.59 4.56 4.47 4.58 4.53 4.50 4.52 4.59 4.72 4.82 4.86 4.92 5.02 5.06 5.15 5.22 5.25 5.24 5.29 5.32 5.32 5.37 5.39 5.43 5.45 5.45 5.51 5.61 5.63 5.71 5.78 5.79 5.86 5.93 6.02 6.12 6.21 6.31 6.37 6.40 6.42 6.51 6.56 6.61 6.64 6.66 6.72 6.77 6.90 7.04 7.23 7.47 7.57 7.79 7.98 8.13 8.32 8.48 8.71 8.88 8.97 9.14 9.41 9.49 9.74 9.85 10.03 10.24 10.46 10.57 10.76 10.88 11.09 11.12 11.33 11.40 11.46 11.65 11.64 11.77 11.81 11.86 11.98 12.00 12.00 12.09 12.16 12.06 12.13 12.21 12.33 12.31 NA NA NA NA NA NA NA NA NA NA NA NA NA NA NA NA NA NA NA NA NA NA NA NA NA NA NA NA NA NA NA NA NA NA NA NA NA NA NA NA NA NA NA NA NA NA NA NA NA NA NA NA NA NA NA NA NA NA NA NA NA NA NA NA NA NA NA NA NA NA NA NA NA NA NA NA NA NA NA NA NA NA NA NA NA NA NA NA NA NA NA NA NA NA NA NA NA NA NA NA NA NA NA NA NA NA NA NA NA NA NA NA NA NA NA NA NA NA NA NA NA NA NA NA NA NA NA NA NA NA NA NA NA NA NA NA NA NA NA NA NA NA NA NA NA NA NA NA NA NA NA NA NA NA NA NA NA NA NA NA NA NA NA NA NA NA NA NA NA NA NA NA NA NA NA NA NA NA NA NA NA NA NA NA NA NA NA NA NA NA NA NA NA NA NA NA NA NA NA NA NA NA NA NA NA NA NA NA NA NA NA NA NA NA NA NA NA NA NA NA NA NA NA NA NA NA NA NA NA NA NA NA NA NA NA NA NA NA NA NA NA NA NA NA NA NA NA NA NA NA NA NA NA NA NA NA NA NA NA NA NA NA NA NA NA NA NA NA NA NA NA NA NA NA NA NA NA NA NA NA NA NA NA NA NA NA NA NA"/>
        <minTGAP time="12.50" position="537.32,603.74" value="4.47" leader="flow_0.0"/>
    </globalMeasures>
    <conflict begin="14.40" end="50.20" ego="flow_51.0" foe="flow_53.0">
        <minTTC time="38.40" position="497.56,695.91" type="111" value="0.00" speed="4.95"/>
        <maxDRAC time="38.30" position="497.16,695.61" type="3" value="36.04" speed="4.94"/>
        <PET time="NA" position="NA" type="NA" value="NA" speed="NA"/>
        <minPPET time="NA" position="NA" type="NA" value="NA" speed="NA"/>
        <maxMDRAC time="37.20" position="492.81,692.37" type="3" value="6.74" speed="4.92"/>
    </conflict>
    <conflict begin="36.40" end="50.20" ego="flow_51.0" foe="flow_1.0">
        <minTTC time="44.30" position="542.53,723.79" type="6" value="4.71" speed="4.92"/>
        <maxDRAC time="44.30" position="542.53,723.79" type="6" value="0.52" speed="4.92"/>
        <PET time="NA" position="NA" type="NA" value="NA" speed="NA"/>
        <minPPET time="42.50" position="542.14,723.48" type="111" value="-1.47" speed="4.94"/>
        <maxMDRAC time="44.30" position="542.53,723.79" type="6" value="0.66" speed="4.92"/>
    </conflict>
    <conflict begin="36.40" end="50.20" ego="flow_51.0" foe="flow_2.0">
        <minTTC time="NA" position="NA" type="NA" value="NA" speed="NA"/>
        <maxDRAC time="44.90" position="542.53,723.79" type="6" value="0.00" speed="4.93"/>
        <PET time="NA" position="NA" type="NA" value="NA" speed="NA"/>
        <minPPET time="43.80" position="542.53,723.79" type="6" value="0.23" speed="4.94"/>
        <maxMDRAC time="44.90" position="542.53,723.79" type="6" value="0.00" speed="4.93"/>
    </conflict>
    <conflict begin="36.40" end="50.20" ego="flow_51.0" foe="flow_41.0">
        <minTTC time="41.00" position="542.53,723.79" type="6" value="7.98" speed="4.94"/>
        <maxDRAC time="41.00" position="542.53,723.79" type="6" value="0.31" speed="4.94"/>
        <PET time="NA" position="NA" type="NA" value="NA" speed="NA"/>
        <minPPET time="41.00" position="542.53,723.79" type="111" value="-1.27" speed="4.94"/>
        <maxMDRAC time="41.00" position="542.53,723.79" type="6" value="0.35" speed="4.94"/>
    </conflict>
    <conflict begin="42.20" end="50.20" ego="flow_51.0" foe="flow_12.1">
        <minTTC time="43.50" position="542.53,723.79" type="6" value="6.30" speed="4.92"/>
        <maxDRAC time="43.50" position="542.53,723.79" type="6" value="0.61" speed="4.92"/>
        <PET time="NA" position="NA" type="NA" value="NA" speed="NA"/>
        <minPPET time="43.50" position="542.53,723.79" type="6" value="0.23" speed="4.92"/>
        <maxMDRAC time="43.50" position="542.53,723.79" type="6" value="0.72" speed="4.92"/>
    </conflict>
    <globalMeasures ego="flow_51.0">
        <timeSpan values="10.00 10.10 10.20 10.30 10.40 10.50 10.60 10.70 10.80 10.90 11.00 11.10 11.20 11.30 11.40 11.50 11.60 11.70 11.80 11.90 12.00 12.10 12.20 12.30 12.40 12.50 12.60 12.70 12.80 12.90 13.00 13.10 13.20 13.30 13.40 13.50 13.60 13.70 13.80 13.90 14.00 14.10 14.20 14.30 14.40 14.50 14.60 14.70 14.80 14.90 15.00 15.10 15.20 15.30 15.40 15.50 15.60 15.70 15.80 15.90 16.00 16.10 16.20 16.30 16.40 16.50 16.60 16.70 16.80 16.90 17.00 17.10 17.20 17.30 17.40 17.50 17.60 17.70 17.80 17.90 18.00 18.10 18.20 18.30 18.40 18.50 18.60 18.70 18.80 18.90 19.00 19.10 19.20 19.30 19.40 19.50 19.60 19.70 19.80 19.90 20.00 20.10 20.20 20.30 20.40 20.50 20.60 20.70 20.80 20.90 21.00 21.10 21.20 21.30 21.40 21.50 21.60 21.70 21.80 21.90 22.00 22.10 22.20 22.30 22.40 22.50 22.60 22.70 22.80 22.90 23.00 23.10 23.20 23.30 23.40 23.50 23.60 23.70 23.80 23.90 24.00 24.10 24.20 24.30 24.40 24.50 24.60 24.70 24.80 24.90 25.00 25.10 25.20 25.30 25.40 25.50 25.60 25.70 25.80 25.90 26.00 26.10 26.20 26.30 26.40 26.50 26.60 26.70 26.80 26.90 27.00 27.10 27.20 27.30 27.40 27.50 27.60 27.70 27.80 27.90 28.00 28.10 28.20 28.30 28.40 28.50 28.60 28.70 28.80 28.90 29.00 29.10 29.20 29.30 29.40 29.50 29.60 29.70 29.80 29.90 30.00 30.10 30.20 30.30 30.40 30.50 30.60 30.70 30.80 30.90 31.00 31.10 31.20 31.30 31.40 31.50 31.60 31.70 31.80 31.90 32.00 32.10 32.20 32.30 32.40 32.50 32.60 32.70 32.80 32.90 33.00 33.10 33.20 33.30 33.40 33.50 33.60 33.70 33.80 33.90 34.00 34.10 34.20 34.30 34.40 34.50 34.60 34.70 34.80 34.90 35.00 35.10 35.20 35.30 35.40 35.50 35.60 35.70 35.80 35.90 36.00 36.10 36.20 36.30 36.40 36.50 36.60 36.70 36.80 36.90 37.00 37.10 37.20 37.30 37.40 37.50 37.60 37.70 37.80 37.90 38.00 38.10 38.20 38.30 38.40 38.50 38.60 38.70 38.80 38.90 39.00 39.10 39.20 39.30 39.40 39.50 39.60 39.70 39.80 39.90 40.00 40.10 40.20 40.30 40.40 40.50 40.60 40.70 40.80 40.90 41.00 41.10 41.20 41.30 41.40 41.50 41.60 41.70 41.80 41.90 42.00 42.10 42.20 42.30 42.40 42.50 42.60 42.70 42.80 42.90 43.00 43.10 43.20 43.30 43.40 43.50 43.60 43.70 43.80 43.90 44.00 44.10 44.20 44.30 44.40 44.50 44.60 44.70 44.80 44.90 45.00 45.10 45.20 45.30 45.40 45.50 45.60 45.70 45.80 45.90 46.00 46.10 46.20 46.30 46.40 46.50 46.60 46.70 46.80 46.90 47.00 47.10 47.20 47.30 47.40 47.50 47.60 47.70 47.80 47.90 48.00 48.10 48.20 48.30 48.40 48.50 48.60 48.70 48.80 48.90 49.00 49.10 49.20 49.30 49.40 49.50 49.60 49.70 49.80 49.90 50.00 50.10 50.20"/>
        <BRSpan values="0.00 0.00 0.00 0.00 0.00 0.00 0.00 0.00 0.00 0.00 0.00 0.00 0.00 0.00 0.00 0.00 0.00 0.00 0.00 0.00 0.00 0.00 0.00 0.00 0.00 0.00 0.00 0.00 0.00 0.00 0.00 0.00 0.00 0.00 0.00 0.00 0.00 0.00 0.00 0.00 0.00 0.00 0.00 0.00 0.00 0.00 0.00 0.00 0.00 0.00 0.00 0.00 0.00 0.00 0.00 0.00 0.00 0.00 0.29 0.00 0.36 0.03 0.00 0.48 0.00 0.08 0.40 0.00 0.51 0.00 0.41 0.00 0.25 0.01 0.00 0.00 0.28 0.00 0.32 0.00 0.00 0.02 0.09 0.00 0.06 0.13 0.00 0.13 0.14 0.25 0.00 0.10 0.00 0.26 0.00 0.04 0.17 0.06 0.00 0.16 0.00 0.09 0.00 0.34 0.00 0.12 0.39 0.00 0.00 0.00 0.00 0.00 0.30 0.00 0.49 0.00 0.00 0.00 0.37 0.00 0.00 0.04 0.25 0.00 0.12 0.00 0.46 0.00 0.05 0.29 0.00 0.00 0.00 0.00 0.54 0.00 0.15 0.10 0.00 0.13 0.00 0.00 0.32 0.14 0.00 0.00 0.24 0.24 0.00 0.40 0.00 0.13 0.12 0.31 0.00 0.29 0.00 0.21 0.00 0.46 0.00 0.00 0.00 0.00 0.29 0.00 0.00 0.00 0.17 0.15 0.00 0.08 0.00 0.24 0.01 0.00 0.15 0.14 0.00 0.00 0.00 0.38 0.00 0.00 0.11 0.00 0.14 0.00 0.32 0.00 0.00 0.26 0.00 0.26 0.00 0.09 0.45 0.00 0.08 0.23 0.00 0.17 0.00 0.24 0.23 0.00 0.00 0.00 0.16 0.09 0.00 0.52 0.00 0.00 0.33 0.00 0.16 0.03 0.00 0.00 0.18 0.04 0.01 0.11 0.02 0.00 0.00 0.31 0.10 0.00 0.11 0.00 0.00 0.00 0.42 0.00 0.37 0.00 0.31 0.00 0.01 0.03 0.00 0.22 0.01 0.00 0.00 0.00 0.52 0.00 0.14 0.02 0.41 0.00 0.00 0.00 0.24 0.00 0.23 0.08 0.00 0.41 0.00 0.03 0.00 0.15 0.00 0.11 0.01 0.00 0.13 0.24 0.00 0.00 0.00 0.05 0.12 0.04 0.00 0.11 0.04 0.16 0.00 0.11 0.00 0.00 0.15 0.02 0.35 0.00 0.39 0.00 0.51 0.02 0.00 0.03 0.00 0.02 0.00 0.03 0.00 0.00 0.36 0.00 0.18 0.00 0.02 0.00 0.07 0.00 0.16 0.07 0.20 0.00 0.09 0.00 0.00 0.36 0.00 0.06 0.18 0.00 0.00 0.34 0.00 0.00 0.00 0.00 0.32 0.00 0.00 0.20 0.00 0.46 0.00 0.00 0.03 0.00 0.02 0.00 0.00 0.37 0.03 0.02 0.04 0.00 0.12 0.16 0.11 0.00 0.10 0.06 0.00 0.00 0.00 0.02 0.40 0.00 0.43 0.00 0.00 0.00 0.31 0.00 0.00 0.00 0.28 0.00 0.00 0.01 0.48 0.02 0.00 0.00 0.49 0.00 0.10 0.12 0.00 0.16 0.00 0.19 0.00 0.11 0.00 0.13 1.54 2.85 3.00 2.84 3.00 3.00 0.00 0.00 0.00 0.00 0.00 0.00 0.00 0.00 0.00 0.00 0.00"/>
        <maxBR time="49.00" position="540.69,722.41" value="3.00"/>
        <SGAPSpan values="NA NA NA NA NA NA NA NA NA NA NA NA NA NA NA NA NA NA NA NA NA NA NA NA NA NA NA NA NA NA NA NA NA NA NA NA NA NA NA NA NA NA NA NA NA NA NA NA NA NA NA NA NA NA NA NA NA NA NA NA NA NA NA NA NA NA NA NA NA NA NA NA NA NA NA NA NA NA NA NA NA NA NA NA NA NA NA NA NA NA NA NA NA NA NA NA NA NA NA NA NA NA NA NA NA NA NA NA NA NA NA NA NA NA NA NA NA NA NA NA NA NA NA NA NA NA NA NA NA NA NA NA NA NA NA NA NA NA NA NA NA NA NA NA NA NA NA NA NA NA NA NA NA NA NA NA NA NA NA NA NA NA NA NA NA NA NA NA NA NA NA NA NA NA NA NA NA NA NA NA NA NA NA NA NA NA NA NA NA NA NA NA NA NA NA NA NA NA NA NA NA NA NA NA NA NA NA NA NA NA NA NA NA NA NA NA NA NA NA NA NA NA NA NA NA NA NA NA NA NA NA NA NA NA NA NA NA NA NA NA NA NA NA NA NA NA NA NA NA NA NA NA NA NA NA NA NA NA NA NA NA NA NA NA NA NA NA NA NA NA NA NA NA NA NA NA NA NA NA NA NA NA NA NA NA NA NA NA NA NA NA NA NA NA NA NA NA NA NA NA NA NA NA NA NA NA NA NA NA NA NA NA NA NA NA NA NA NA NA 0.62 0.75 0.88 1.01 1.14 1.27 1.40 1.52 1.65 1.78 1.91 2.04 2.16 2.29 2.42 2.55 2.68 2.81 2.94 3.07 3.20 3.33 3.46 NA NA NA NA NA NA 4.38 4.52 4.65 4.78 4.91 5.04 5.16 NA NA NA NA NA 5.95 6.08 6.21 6.34 6.47 6.59 6.72 6.85 6.97 NA NA NA NA NA NA NA NA NA NA NA NA NA NA NA NA NA NA NA NA NA NA NA NA NA NA NA NA NA NA NA NA NA NA"/>
        <minSGAP time="41.90" position="513.01,707.43" value="0.62" leader="flow_53.0"/>
        <TGAPSpan values="NA NA NA NA NA NA NA NA NA NA NA NA NA NA NA NA NA NA NA NA NA NA NA NA NA NA NA NA NA NA NA NA NA NA NA NA NA NA NA NA NA NA NA NA NA NA NA NA NA NA NA NA NA NA NA NA NA NA NA NA NA NA NA NA NA NA NA NA NA NA NA NA NA NA NA NA NA NA NA NA NA NA NA NA NA NA NA NA NA NA NA NA NA NA NA NA NA NA NA NA NA NA NA NA NA NA NA NA NA NA NA NA NA NA NA NA NA NA NA NA NA NA NA NA NA NA NA NA NA NA NA NA NA NA NA NA NA NA NA NA NA NA NA NA NA NA NA NA NA NA NA NA NA NA NA NA NA NA NA NA NA NA NA NA NA NA NA NA NA NA NA NA NA NA NA NA NA NA NA NA NA NA NA NA NA NA NA NA NA NA NA NA NA NA NA NA NA NA NA NA NA NA NA NA NA NA NA NA NA NA NA NA NA NA NA NA NA NA NA NA NA NA NA NA NA NA NA NA NA NA NA NA NA NA NA NA NA NA NA NA NA NA NA NA NA NA NA NA NA NA NA NA NA NA NA NA NA NA NA NA NA NA NA NA NA NA NA NA NA NA NA NA NA NA NA NA NA NA NA NA NA NA NA NA NA NA NA NA NA NA NA NA NA NA NA NA NA NA NA NA NA NA NA NA NA NA NA NA NA NA NA NA NA NA NA NA NA NA NA 0.13 0.15 0.18 0.20 0.23 0.26 0.28 0.31 0.33 0.36 0.39 0.41 0.44 0.46 0.49 0.52 0.54 0.57 0.60 0.62 0.65 0.67 0.70 NA NA NA NA NA NA 0.89 0.92 0.94 0.97 1.00 1.02 1.04 NA NA NA NA NA 1.20 1.23 1.26 1.28 1.30 1.33 1.36 1.38 1.40 NA NA NA NA NA NA NA NA NA NA NA NA NA NA NA NA NA NA NA NA NA NA NA NA NA NA NA NA NA NA NA NA NA NA"/>
        <minTGAP time="41.90" position="513.01,707.43" value="0.13" leader="flow_53.0"/>
    </globalMeasures>
    <conflict begin="14.40" end="50.20" ego="flow_52.0" foe="flow_53.0">
        <minTTC time="32.60" position="469.05,673.78" type="111" value="0.00" speed="4.97"/>
        <maxDRAC time="32.50" position="468.67,673.45" type="3" value="30.92" speed="4.93"/>
        <PET time="NA" position="NA" type="NA" value="NA" speed="NA"/>
        <minPPET time="NA" position="NA" type="NA" value="NA" speed="NA"/>
        <maxMDRAC time="31.40" position="464.57,669.87" type="3" value="4.96" speed="4.96"/>
    </conflict>
    <conflict begin="16.60" end="50.20" ego="flow_52.0" foe="flow_54.0">
        <minTTC time="47.40" position="527.14,718.21" type="3" value="2.81" speed="4.95"/>
        <maxDRAC time="47.40" position="527.14,718.21" type="3" value="0.18" speed="4.95"/>
        <PET time="NA" position="NA" type="NA" value="NA" speed="NA"/>
        <minPPET time="NA" position="NA" type="NA" value="NA" speed="NA"/>
        <maxMDRAC time="47.40" position="527.14,718.21" type="3" value="0.28" speed="4.95"/>
    </conflict>
    <conflict begin="37.90" end="50.20" ego="flow_52.0" foe="flow_1.0">
        <minTTC time="44.50" position="542.53,723.79" type="6" value="6.02" speed="4.93"/>
        <maxDRAC time="44.50" position="542.53,723.79" type="6" value="0.41" speed="4.93"/>
        <PET time="NA" position="NA" type="NA" value="NA" speed="NA"/>
        <minPPET time="44.50" position="542.53,723.79" type="111" value="-2.03" speed="4.93"/>
        <maxMDRAC time="44.50" position="542.53,723.79" type="6" value="0.49" speed="4.93"/>
    </conflict>
    <conflict begin="37.90" end="50.20" ego="flow_52.0" foe="flow_2.0">
        <minTTC time="44.10" position="542.53,723.79" type="6" value="6.46" speed="4.95"/>
        <maxDRAC time="44.00" position="542.53,723.79" type="6" value="0.38" speed="4.94"/>
        <PET time="NA" position="NA" type="NA" value="NA" speed="NA"/>
        <minPPET time="43.60" position="542.14,723.48" type="111" value="-0.89" speed="4.90"/>
        <maxMDRAC time="44.00" position="542.53,723.79" type="6" value="0.45" speed="4.94"/>
    </conflict>
    <conflict begin="37.90" end="50.20" ego="flow_52.0" foe="flow_41.0">
        <minTTC time="41.10" position="542.53,723.79" type="6" value="9.37" speed="4.96"/>
        <maxDRAC time="41.10" position="542.53,723.79" type="6" value="0.26" speed="4.96"/>
        <PET time="NA" position="NA" type="NA" value="NA" speed="NA"/>
        <minPPET time="41.10" position="542.53,723.79" type="111" value="-0.57" speed="4.96"/>
        <maxMDRAC time="41.10" position="542.53,723.79" type="6" value="0.30" speed="4.96"/>
    </conflict>
    <conflict begin="42.20" end="50.20" ego="flow_52.0" foe="flow_12.1">
        <minTTC time="44.10" position="542.53,723.79" type="6" value="6.47" speed="4.95"/>
        <maxDRAC time="44.10" position="542.53,723.79" type="6" value="0.84" speed="4.95"/>
        <PET time="NA" position="NA" type="NA" value="NA" speed="NA"/>
        <minPPET time="44.10" position="542.53,723.79" type="111" value="-0.33" speed="4.95"/>
        <maxMDRAC time="44.10" position="542.53,723.79" type="6" value="0.99" speed="4.95"/>
    </conflict>
    <globalMeasures ego="flow_52.0">
        <timeSpan values="12.20 12.30 12.40 12.50 12.60 12.70 12.80 12.90 13.00 13.10 13.20 13.30 13.40 13.50 13.60 13.70 13.80 13.90 14.00 14.10 14.20 14.30 14.40 14.50 14.60 14.70 14.80 14.90 15.00 15.10 15.20 15.30 15.40 15.50 15.60 15.70 15.80 15.90 16.00 16.10 16.20 16.30 16.40 16.50 16.60 16.70 16.80 16.90 17.00 17.10 17.20 17.30 17.40 17.50 17.60 17.70 17.80 17.90 18.00 18.10 18.20 18.30 18.40 18.50 18.60 18.70 18.80 18.90 19.00 19.10 19.20 19.30 19.40 19.50 19.60 19.70 19.80 19.90 20.00 20.10 20.20 20.30 20.40 20.50 20.60 20.70 20.80 20.90 21.00 21.10 21.20 21.30 21.40 21.50 21.60 21.70 21.80 21.90 22.00 22.10 22.20 22.30 22.40 22.50 22.60 22.70 22.80 22.90 23.00 23.10 23.20 23.30 23.40 23.50 23.60 23.70 23.80 23.90 24.00 24.10 24.20 24.30 24.40 24.50 24.60 24.70 24.80 24.90 25.00 25.10 25.20 25.30 25.40 25.50 25.60 25.70 25.80 25.90 26.00 26.10 26.20 26.30 26.40 26.50 26.60 26.70 26.80 26.90 27.00 27.10 27.20 27.30 27.40 27.50 27.60 27.70 27.80 27.90 28.00 28.10 28.20 28.30 28.40 28.50 28.60 28.70 28.80 28.90 29.00 29.10 29.20 29.30 29.40 29.50 29.60 29.70 29.80 29.90 30.00 30.10 30.20 30.30 30.40 30.50 30.60 30.70 30.80 30.90 31.00 31.10 31.20 31.30 31.40 31.50 31.60 31.70 31.80 31.90 32.00 32.10 32.20 32.30 32.40 32.50 32.60 32.70 32.80 32.90 33.00 33.10 33.20 33.30 33.40 33.50 33.60 33.70 33.80 33.90 34.00 34.10 34.20 34.30 34.40 34.50 34.60 34.70 34.80 34.90 35.00 35.10 35.20 35.30 35.40 35.50 35.60 35.70 35.80 35.90 36.00 36.10 36.20 36.30 36.40 36.50 36.60 36.70 36.80 36.90 37.00 37.10 37.20 37.30 37.40 37.50 37.60 37.70 37.80 37.90 38.00 38.10 38.20 38.30 38.40 38.50 38.60 38.70 38.80 38.90 39.00 39.10 39.20 39.30 39.40 39.50 39.60 39.70 39.80 39.90 40.00 40.10 40.20 40.30 40.40 40.50 40.60 40.70 40.80 40.90 41.00 41.10 41.20 41.30 41.40 41.50 41.60 41.70 41.80 41.90 42.00 42.10 42.20 42.30 42.40 42.50 42.60 42.70 42.80 42.90 43.00 43.10 43.20 43.30 43.40 43.50 43.60 43.70 43.80 43.90 44.00 44.10 44.20 44.30 44.40 44.50 44.60 44.70 44.80 44.90 45.00 45.10 45.20 45.30 45.40 45.50 45.60 45.70 45.80 45.90 46.00 46.10 46.20 46.30 46.40 46.50 46.60 46.70 46.80 46.90 47.00 47.10 47.20 47.30 47.40 47.50 47.60 47.70 47.80 47.90 48.00 48.10 48.20 48.30 48.40 48.50 48.60 48.70 48.80 48.90 49.00 49.10 49.20 49.30 49.40 49.50 49.60 49.70 49.80 49.90 50.00 50.10 50.20"/>
        <BRSpan values="0.00 0.00 0.00 0.00 0.00 0.00 0.00 0.00 0.00 0.00 0.00 0.00 0.00 0.00 0.00 0.00 0.00 0.00 0.00 0.00 0.00 0.00 0.00 0.00 0.00 0.00 0.00 0.00 0.00 0.00 0.00 0.00 0.00 0.00 0.00 0.00 0.00 0.00 0.00 0.00 0.00 0.00 0.00 0.00 0.00 0.00 0.00 0.00 0.00 0.00 0.00 0.00 0.00 0.00 0.00 0.00 0.00 0.00 0.25 0.00 0.05 0.07 0.28 0.00 0.00 0.29 0.00 0.35 0.00 0.42 0.00 0.27 0.05 0.08 0.08 0.00 0.44 0.11 0.00 0.00 0.33 0.00 0.00 0.27 0.09 0.00 0.08 0.14 0.00 0.00 0.47 0.00 0.42 0.00 0.00 0.36 0.05 0.00 0.23 0.00 0.50 0.00 0.00 0.17 0.07 0.00 0.00 0.00 0.37 0.00 0.18 0.00 0.20 0.00 0.00 0.34 0.00 0.10 0.00 0.00 0.00 0.30 0.04 0.25 0.00 0.41 0.52 0.00 0.38 0.00 0.00 0.09 0.30 0.12 0.00 0.18 0.27 0.00 0.44 0.00 0.00 0.34 0.00 0.63 0.00 0.00 0.44 0.00 0.35 0.00 0.09 0.00 0.20 0.00 0.04 0.08 0.00 0.50 0.00 0.00 0.77 0.00 0.00 0.00 0.00 0.51 0.00 0.31 0.00 0.00 0.24 0.10 0.00 0.00 0.28 0.00 0.08 0.00 0.16 0.00 0.40 0.00 0.19 0.04 0.17 0.00 0.00 0.19 0.22 0.00 0.62 0.00 0.01 0.05 0.00 0.19 0.00 0.16 0.00 0.08 0.00 0.47 0.00 0.00 0.00 0.33 0.22 0.00 0.33 0.02 0.00 0.00 0.00 0.30 0.00 0.43 0.07 0.08 0.00 0.00 0.33 0.10 0.01 0.00 0.00 0.29 0.00 0.67 0.00 0.10 0.19 0.04 0.19 0.00 0.01 0.07 0.00 0.00 0.38 0.00 0.31 0.00 0.15 0.00 0.06 0.00 0.48 0.00 0.00 0.57 0.02 0.04 0.00 0.00 0.39 0.00 0.00 0.00 0.59 0.00 0.00 0.00 0.04 0.00 0.00 0.10 0.09 0.13 0.13 0.00 0.00 0.37 0.00 0.00 0.05 0.07 0.00 0.03 0.00 0.00 0.00 0.37 0.23 0.00 0.22 0.13 0.00 0.00 0.00 0.00 0.43 0.19 0.00 0.00 0.23 0.00 0.08 0.00 0.00 0.39 0.00 0.31 0.00 0.28 0.00 0.00 0.18 0.30 0.00 0.00 0.11 0.00 0.00 0.00 0.53 0.05 0.00 0.00 0.26 0.00 0.03 0.17 0.12 0.00 0.00 0.09 0.18 0.18 0.00 0.37 0.12 0.00 0.01 0.00 0.25 0.00 0.00 0.45 0.30 0.00 0.00 0.00 0.17 0.00 0.00 0.00 0.00 0.11 0.18 0.05 0.00 0.16 0.00 0.25 0.11 0.00 0.11 0.05 0.00 0.06 0.25 0.06 0.00 0.00 0.48 1.03 1.29 1.97 2.00 1.53 2.00 0.00 0.19 0.00 0.00 0.00 0.00 0.00 0.00 0.00 0.00"/>
        <maxBR time="49.20" position="535.66,723.36" value="2.00"/>
        <SGAPSpan values="0.55 0.77 0.98 1.19 1.39 1.60 1.79 1.99 2.19 2.38 2.58 2.77 2.97 3.17 3.36 3.55 3.74 3.93 4.12 4.30 4.49 4.68 4.87 5.06 5.25 5.44 5.63 5.81 6.00 6.18 6.36 6.54 6.72 6.90 7.07 7.22 7.37 7.51 7.64 7.76 7.88 7.98 8.08 8.17 8.25 8.32 8.37 8.42 8.46 8.49 8.51 8.52 8.53 8.53 8.52 8.50 8.46 8.42 8.39 8.36 8.33 8.29 8.27 8.24 8.20 8.17 8.14 8.10 8.07 8.04 8.01 7.97 7.94 7.91 7.88 7.84 7.81 7.78 7.75 7.71 7.68 7.65 7.62 7.59 7.56 7.52 7.48 7.45 7.42 7.39 7.36 7.32 7.29 7.26 7.23 7.20 7.17 7.13 7.10 7.07 7.04 7.01 6.98 6.95 6.91 6.88 6.85 6.81 6.78 6.75 6.72 6.69 6.65 6.62 6.58 6.55 6.52 6.49 6.46 6.42 6.39 6.35 6.32 6.30 6.26 6.23 6.21 6.18 6.16 6.14 6.12 6.09 6.07 6.05 6.03 6.01 6.00 5.98 5.96 5.94 5.93 5.91 5.89 5.88 5.87 5.85 5.84 5.83 5.82 5.81 5.80 5.78 5.77 5.76 5.75 5.74 5.73 5.72 5.72 5.70 5.70 5.70 5.69 5.69 5.68 5.67 5.66 5.66 5.66 5.65 5.65 5.64 5.64 5.63 5.63 5.62 5.62 5.61 5.61 5.60 5.60 5.60 5.59 5.59 5.59 5.59 5.58 5.58 5.58 5.57 5.57 5.57 5.57 5.56 5.56 5.56 5.55 5.55 5.55 5.55 5.54 5.54 5.54 5.54 NA NA NA NA NA NA NA NA NA NA 5.53 5.53 5.53 5.53 5.53 NA NA NA NA NA NA NA NA NA NA NA NA NA NA NA NA NA NA NA NA 0.62 0.75 0.88 1.01 1.14 1.27 1.40 1.53 1.66 1.79 1.92 2.05 2.19 2.32 2.44 2.57 2.70 2.83 2.96 3.09 3.23 3.36 3.49 3.62 3.75 3.88 4.00 4.13 4.26 4.39 4.51 4.64 4.77 4.90 5.03 5.16 5.29 5.42 5.51 5.51 5.51 5.51 5.51 5.51 5.51 5.51 5.51 5.51 5.52 5.52 5.51 5.52 5.52 5.52 5.52 5.52 5.52 5.52 5.52 5.52 5.52 5.52 5.52 5.51 5.52 5.52 5.52 5.52 5.52 5.52 5.52 5.52 5.52 5.52 5.52 5.52 5.52 5.52 5.52 5.52 5.52 5.52 5.52 5.52 5.52 5.52 5.51 5.51 5.51 5.51 5.51 5.51 NA NA NA NA NA NA NA NA NA NA 5.52 5.52 5.53 5.53 5.53 5.53 5.53 NA NA NA NA NA NA 5.52 5.52 5.52 5.52 5.52 5.52 5.52 5.52 5.52 5.52 5.51 5.47 5.43 5.37 5.30 5.22 5.17 5.12 5.08 5.05 5.02 5.00 4.99 4.97 4.97 4.97 4.97"/>
        <minSGAP time="12.20" position="401.44,615.34" value="0.55" leader="flow_51.0"/>