<?xml version="1.0" encoding="UTF-8"?>

<!-- generated on 2024-01-06 16:13:36 by Eclipse SUMO netconvert Version 1.19.0
<configuration xmlns:xsi="http://www.w3.org/2001/XMLSchema-instance" xsi:noNamespaceSchemaLocation="http://sumo.dlr.de/xsd/netconvertConfiguration.xsd">

    <input>
        <type-files value="${SUMO_HOME}/data/typemap/osmNetconvert.typ.xml,${SUMO_HOME}/data/typemap/osmNetconvertUrbanDe.typ.xml,${SUMO_HOME}/data/typemap/osmNetconvertPedestrians.typ.xml,${SUMO_HOME}/data/typemap/osmNetconvertBicycle.typ.xml,${SUMO_HOME}/data/typemap/osmNetconvertAerialway.typ.xml"/>
        <osm-files value="osm_bbox.osm.xml.gz"/>
    </input>

    <output>
        <output-file value="osm.net.xml.gz"/>
        <output.street-names value="true"/>
        <output.original-names value="true"/>
        <ptstop-output value="osm_stops.add.xml"/>
        <ptline-output value="osm_ptlines.xml"/>
    </output>

    <projection>
        <proj.utm value="true"/>
    </projection>

    <processing>
        <geometry.remove value="true"/>
        <roundabouts.guess value="true"/>
    </processing>

    <tls_building>
        <tls.discard-simple value="true"/>
        <tls.join value="true"/>
        <tls.guess-signals value="true"/>
        <tls.default-type value="actuated"/>
    </tls_building>

    <ramp_guessing>
        <ramps.guess value="true"/>
    </ramp_guessing>

    <junctions>
        <junctions.join value="true"/>
        <junctions.corner-detail value="5"/>
    </junctions>

    <pedestrian>
        <crossings.guess value="true"/>
    </pedestrian>

    <railway>
        <railway.topology.repair value="true"/>
    </railway>

    <formats>
        <osm.bike-access value="true"/>
        <osm.sidewalks value="true"/>
    </formats>

</configuration>
-->

<net version="1.16" junctionCornerDetail="5" walkingareas="true" limitTurnSpeed="5.50" xmlns:xsi="http://www.w3.org/2001/XMLSchema-instance" xsi:noNamespaceSchemaLocation="http://sumo.dlr.de/xsd/net_file.xsd">

    <location netOffset="-690350.21,-5334634.56" convBoundary="0.00,0.00,1386.94,2668.85" origBoundary="11.559153,48.136328,11.577917,48.160116" projParameter="+proj=utm +zone=32 +ellps=WGS84 +datum=WGS84 +units=m +no_defs"/>

    <type id="cycleway.lane|highway.residential" priority="3" numLanes="1" speed="13.89" disallow="pedestrian tram rail_urban rail rail_electric rail_fast ship" oneway="0" sidewalkWidth="2.00" bikeLaneWidth="1.25"/>
    <type id="cycleway.lane|highway.secondary" priority="11" numLanes="1" speed="13.89" disallow="pedestrian tram rail_urban rail rail_electric rail_fast ship" oneway="0" sidewalkWidth="3.00" bikeLaneWidth="1.25"/>
    <type id="highway.cycleway" priority="1" numLanes="1" speed="5.56" allow="bicycle" oneway="0" width="2.00"/>
    <type id="highway.footway" priority="1" numLanes="1" speed="2.78" allow="pedestrian" oneway="1" width="2.00"/>
    <type id="highway.path" priority="1" numLanes="1" speed="5.56" allow="pedestrian bicycle" oneway="0" width="2.00"/>
    <type id="highway.pedestrian" priority="1" numLanes="1" speed="2.78" allow="pedestrian" oneway="1" width="2.00"/>
    <type id="highway.residential" priority="3" numLanes="1" speed="13.89" disallow="pedestrian tram rail_urban rail rail_electric rail_fast ship" oneway="0" sidewalkWidth="2.00"/>
    <type id="highway.secondary" priority="11" numLanes="1" speed="13.89" disallow="pedestrian tram rail_urban rail rail_electric rail_fast ship" oneway="0" sidewalkWidth="3.00"/>
    <type id="highway.service" priority="1" numLanes="1" speed="5.56" allow="pedestrian delivery bicycle" oneway="0"/>
    <type id="highway.steps" priority="1" numLanes="1" speed="1.39" allow="pedestrian" oneway="1" width="2.00"/>
    <type id="highway.tertiary" priority="10" numLanes="1" speed="13.89" disallow="pedestrian tram rail_urban rail rail_electric rail_fast ship" oneway="0" sidewalkWidth="3.00"/>
    <type id="railway.tram" priority="17" numLanes="1" speed="13.89" allow="tram" oneway="1"/>

    <edge id=":10142544413_0" function="internal">
        <lane id=":10142544413_0_0" index="0" allow="pedestrian delivery bicycle" speed="3.65" length="4.67" shape="461.66,1412.54 460.25,1412.26 459.57,1411.68 459.64,1410.78 460.44,1409.59"/>
    </edge>
    <edge id=":10162403624_w0" function="walkingarea">
        <lane id=":10162403624_w0_0" index="0" allow="pedestrian" speed="2.78" length="0.30" width="2.00" shape="836.98,1207.22 838.84,1206.47 838.72,1206.19 836.87,1206.94"/>
    </edge>
    <edge id=":10162403625_w0" function="walkingarea">
        <lane id=":10162403625_w0_0" index="0" allow="pedestrian" speed="2.78" length="0.27" width="2.00" shape="846.68,1209.34 845.92,1207.49 845.69,1207.58 846.40,1209.45"/>
    </edge>
    <edge id=":10162403626_w0" function="walkingarea">
        <lane id=":10162403626_w0_0" index="0" allow="pedestrian" speed="2.78" length="3.50" width="2.00" shape="849.28,1209.88 851.11,1209.06 849.15,1204.47 847.32,1205.28 846.55,1207.24 847.33,1209.08"/>
    </edge>
    <edge id=":10162403627_w0" function="walkingarea">
        <lane id=":10162403627_w0_0" index="0" allow="pedestrian" speed="2.78" length="2.47" width="2.00" shape="680.13,1273.55 679.42,1271.68 676.62,1272.73 677.31,1274.61"/>
    </edge>
    <edge id=":10162403628_w0" function="walkingarea">
        <lane id=":10162403628_w0_0" index="0" allow="pedestrian" speed="2.78" length="0.39" width="2.00" shape="683.48,1264.25 685.36,1263.58 685.27,1263.31 683.40,1264.04"/>
    </edge>
    <edge id=":10162403629_w0" function="walkingarea">
        <lane id=":10162403629_w0_0" index="0" allow="pedestrian" speed="2.78" length="3.76" width="2.00" shape="683.80,1265.04 685.66,1264.31 686.52,1262.39 685.81,1260.52 681.12,1262.27 681.83,1264.14"/>
    </edge>
    <edge id=":10162403631_w0" function="walkingarea">
        <lane id=":10162403631_w0_0" index="0" allow="pedestrian" speed="2.78" length="4.05" width="2.00" shape="686.54,1272.72 688.42,1272.04 688.29,1271.18 688.39,1270.83 688.59,1270.52 688.91,1270.27 689.33,1270.06 688.62,1268.19 687.78,1268.33 687.44,1268.24 687.15,1268.04 686.90,1267.73 686.71,1267.31 684.83,1267.99 684.96,1268.85 684.86,1269.21 684.65,1269.52 684.34,1269.77 683.92,1269.98 684.63,1271.85 685.46,1271.71 685.81,1271.80 686.10,1272.00 686.34,1272.31"/>
    </edge>
    <edge id=":10175282350_w0" function="walkingarea">
        <lane id=":10175282350_w0_0" index="0" allow="pedestrian" speed="2.78" length="4.03" width="2.00" shape="621.00,1569.40 622.85,1568.66 621.01,1564.02 619.15,1564.76 619.30,1565.59 619.21,1565.93 619.01,1566.23 618.71,1566.48 618.29,1566.68 619.00,1568.55 619.86,1568.40 620.22,1568.49 620.53,1568.69 620.78,1568.99"/>
    </edge>
    <edge id=":10175282351_w0" function="walkingarea">
        <lane id=":10175282351_w0_0" index="0" allow="pedestrian" speed="2.78" length="3.47" width="2.00" shape="623.66,1583.28 622.92,1581.42 621.07,1580.56 619.17,1581.17 619.39,1582.18 619.38,1582.55 619.32,1582.93 619.24,1583.38 619.16,1583.98 620.90,1586.55"/>
    </edge>
    <edge id=":10186073417_w0" function="walkingarea">
        <lane id=":10186073417_w0_0" index="0" allow="pedestrian" speed="2.78" length="3.80" width="2.00" shape="490.49,1383.05 492.36,1382.33 493.22,1380.40 492.51,1378.53 490.54,1377.67 488.68,1378.40"/>
    </edge>
    <edge id=":10199385975_0" function="internal">
        <lane id=":10199385975_0_0" index="0" allow="pedestrian delivery bicycle" speed="3.65" length="4.67" shape="502.82,1502.18 502.51,1503.59 501.91,1504.25 501.02,1504.17 499.84,1503.35"/>
    </edge>
    <edge id=":10199385976_0" function="internal">
        <lane id=":10199385976_0_0" index="0" allow="pedestrian delivery bicycle" speed="5.06" length="5.05" shape="493.42,1486.88 492.74,1485.65 491.84,1484.94 490.72,1484.73 489.39,1485.04"/>
    </edge>
    <edge id=":10199385976_1" function="internal">
        <lane id=":10199385976_1_0" index="0" allow="pedestrian delivery bicycle" speed="5.56" length="10.22" shape="493.42,1486.88 492.78,1484.15 493.18,1481.88 494.60,1480.07 497.06,1478.72"/>
    </edge>
    <edge id=":10199385976_2" function="internal">
        <lane id=":10199385976_2_0" index="0" allow="pedestrian delivery bicycle" speed="3.65" length="4.67" shape="493.42,1486.88 493.73,1485.47 494.33,1484.81 495.22,1484.89 496.40,1485.72"/>
    </edge>
    <edge id=":10199385976_3" function="internal">
        <lane id=":10199385976_3_0" index="0" allow="pedestrian delivery bicycle" speed="5.03" length="5.01" shape="498.19,1481.71 496.98,1482.38 496.28,1483.26 496.09,1484.38 496.40,1485.72"/>
    </edge>
    <edge id=":10199385976_4" function="internal">
        <lane id=":10199385976_4_0" index="0" allow="pedestrian delivery bicycle" speed="5.56" length="9.40" shape="498.19,1481.71 489.39,1485.04"/>
    </edge>
    <edge id=":10199385976_5" function="internal">
        <lane id=":10199385976_5_0" index="0" allow="pedestrian delivery bicycle" speed="3.65" length="4.67" shape="498.19,1481.71 496.78,1481.39 496.12,1480.78 496.22,1479.89 497.06,1478.72"/>
    </edge>
    <edge id=":10199385976_6" function="internal">
        <lane id=":10199385976_6_0" index="0" allow="pedestrian delivery bicycle" speed="5.56" length="9.40" shape="488.26,1482.04 497.06,1478.72"/>
    </edge>
    <edge id=":10199385976_7" function="internal">
        <lane id=":10199385976_7_0" index="0" allow="pedestrian delivery bicycle" speed="5.56" length="10.19" shape="488.26,1482.04 490.95,1481.42 493.21,1481.83 495.02,1483.26 496.40,1485.72"/>
    </edge>
    <edge id=":10199385976_8" function="internal">
        <lane id=":10199385976_8_0" index="0" allow="pedestrian delivery bicycle" speed="3.65" length="4.67" shape="488.26,1482.04 489.67,1482.37 490.32,1482.97 490.23,1483.86 489.39,1485.04"/>
    </edge>
    <edge id=":10199385976_w0" function="walkingarea">
        <lane id=":10199385976_w0_0" index="0" allow="pedestrian" speed="2.78" length="6.88" width="3.20" shape="491.93,1487.46 497.89,1485.14 497.75,1484.30 497.83,1483.96 498.03,1483.66 498.34,1483.41 498.75,1483.21 496.49,1477.22 487.69,1480.54 489.96,1486.53 490.80,1486.39 491.15,1486.49 491.46,1486.70 491.72,1487.03"/>
    </edge>
    <edge id=":10199385977_0" function="internal">
        <lane id=":10199385977_0_0" index="0" allow="pedestrian delivery bicycle" speed="3.65" length="4.67" shape="473.96,1491.05 472.56,1490.74 471.89,1490.14 471.97,1489.25 472.80,1488.07"/>
    </edge>
    <edge id=":10288042787_0" function="internal">
        <lane id=":10288042787_0_0" index="0" allow="bicycle" speed="5.56" length="5.00" width="1.00" shape="1006.70,1006.64 1004.84,1002.00"/>
    </edge>
    <edge id=":10288042787_w0" function="walkingarea">
        <lane id=":10288042787_w0_0" index="0" allow="pedestrian" speed="2.78" length="4.03" width="2.00" shape="1004.37,1002.19 1002.52,1002.93 1001.68,1004.87 1002.40,1006.73 1004.37,1007.57 1006.23,1006.83"/>
    </edge>
    <edge id=":1077566065_0" function="internal">
        <lane id=":1077566065_0_0" index="0" allow="bicycle" speed="5.56" length="5.87" width="1.00" shape="290.80,1106.45 296.29,1104.37"/>
    </edge>
    <edge id=":1077566065_w0" function="walkingarea">
        <lane id=":1077566065_w0_0" index="0" allow="pedestrian" speed="2.78" length="4.79" width="2.00" shape="296.11,1103.90 295.40,1102.03 294.65,1101.21 292.85,1100.34 289.90,1104.12 290.62,1105.98"/>
    </edge>
    <edge id=":1077566364_0" function="internal">
        <lane id=":1077566364_0_0" index="0" allow="bicycle" speed="5.56" length="4.46" width="1.00" shape="170.65,1181.42 169.03,1177.27"/>
    </edge>
    <edge id=":1077566364_c0" function="crossing" crossingEdges="113849535#15">
        <lane id=":1077566364_c0_0" index="0" allow="pedestrian" speed="2.78" length="1.00" width="4.00" shape="170.38,1179.38 169.45,1179.74"/>
    </edge>
    <edge id=":1077566364_w0" function="walkingarea">
        <lane id=":1077566364_w0_0" index="0" allow="pedestrian" speed="2.78" length="4.06" width="4.00" shape="168.57,1177.45 166.70,1178.16 164.88,1176.57 164.19,1178.44 168.32,1182.34 170.18,1181.60 168.71,1177.88"/>
    </edge>
    <edge id=":1077566364_w1" function="walkingarea">
        <lane id=":1077566364_w1_0" index="0" allow="pedestrian" speed="2.78" length="0.51" width="4.00" shape="169.64,1177.52 171.11,1181.24 170.44,1179.88 169.77,1178.00"/>
    </edge>
    <edge id=":1077566390_w0" function="walkingarea">
        <lane id=":1077566390_w0_0" index="0" allow="pedestrian" speed="2.78" length="4.17" width="2.00" shape="185.56,1175.59 187.42,1174.87 187.93,1170.77 186.50,1169.36 185.43,1171.56 183.45,1171.81 184.17,1172.46 184.61,1172.68 184.90,1173.19 185.10,1173.90 185.29,1174.73"/>
    </edge>
    <edge id=":1077566508_0" function="internal">
        <lane id=":1077566508_0_0" index="0" disallow="pedestrian tram rail_urban rail rail_electric rail_fast ship" speed="3.65" length="4.67" shape="4.43,1384.44 3.03,1384.11 2.37,1383.50 2.46,1382.62 3.30,1381.44"/>
    </edge>
    <edge id=":1077566664_0" function="internal">
        <lane id=":1077566664_0_0" index="0" allow="bicycle" speed="4.17" length="4.28" width="1.00" shape="339.12,1115.55 335.29,1113.66"/>
    </edge>
    <edge id=":1077566664_1" function="internal">
        <lane id=":1077566664_1_0" index="0" allow="pedestrian bicycle" speed="2.78" length="2.92" width="2.00" shape="339.30,1115.08 338.76,1114.36 338.70,1113.80 339.10,1113.42 339.98,1113.20"/>
    </edge>
    <edge id=":1077566664_w0" function="walkingarea">
        <lane id=":1077566664_w0_0" index="0" allow="pedestrian" speed="2.78" length="3.36" width="2.00" shape="335.46,1114.13 336.13,1116.02 338.95,1116.02 339.64,1114.14 340.32,1112.26"/>
    </edge>
    <edge id=":10776430300_w0" function="walkingarea">
        <lane id=":10776430300_w0_0" index="0" allow="pedestrian" speed="2.78" length="4.06" width="2.00" shape="615.33,1288.52 617.22,1287.86 617.09,1286.99 617.20,1286.64 617.40,1286.33 617.72,1286.07 618.15,1285.86 617.45,1283.99 616.62,1284.13 616.27,1284.03 615.98,1283.83 615.74,1283.52 615.55,1283.10 613.66,1283.77 613.78,1284.63 613.68,1284.99 613.47,1285.30 613.16,1285.55 612.73,1285.76 613.43,1287.63 614.26,1287.50 614.61,1287.59 614.90,1287.79 615.14,1288.10"/>
    </edge>
    <edge id=":10852608900_0" function="internal">
        <lane id=":10852608900_0_0" index="0" allow="bicycle" speed="5.56" length="5.01" width="1.00" shape="352.62,1037.95 354.36,1042.66"/>
    </edge>
    <edge id=":10852608900_c0" function="crossing" crossingEdges="477275835#0">
        <lane id=":10852608900_c0_0" index="0" allow="pedestrian" speed="2.78" length="1.00" width="4.00" shape="352.85,1040.00 353.78,1039.66"/>
    </edge>
    <edge id=":10852608900_w0" function="walkingarea">
        <lane id=":10852608900_w0_0" index="0" allow="pedestrian" speed="2.78" length="3.48" width="4.00" shape="354.83,1042.48 356.71,1041.79 354.97,1037.09 353.09,1037.78 354.48,1041.53"/>
    </edge>
    <edge id=":10852608900_w1" function="walkingarea">
        <lane id=":10852608900_w1_0" index="0" allow="pedestrian" speed="2.78" length="0.74" width="4.00" shape="353.54,1041.88 352.15,1038.13 352.20,1039.65 352.66,1041.59"/>
    </edge>
    <edge id=":10855746723_0" function="internal">
        <lane id=":10855746723_0_0" index="0" allow="pedestrian bicycle" speed="4.17" length="3.08" width="2.00" shape="611.08,1338.03 610.28,1338.44 609.79,1338.85 609.31,1339.26 608.51,1339.68"/>
    </edge>
    <edge id=":10855746723_1" function="internal">
        <lane id=":10855746723_1_0" index="0" allow="pedestrian bicycle" speed="4.17" length="3.08" width="2.00" shape="607.34,1336.70 608.21,1336.46 608.84,1336.43 609.48,1336.41 610.35,1336.16"/>
    </edge>
    <edge id=":10855746723_2" function="internal">
        <lane id=":10855746723_2_0" index="0" allow="pedestrian delivery bicycle" speed="3.65" length="1.33" shape="607.34,1336.70 608.64,1336.98"/>
    </edge>
    <edge id=":10855746723_3" function="internal">
        <lane id=":10855746723_3_0" index="0" allow="pedestrian delivery bicycle" speed="3.65" length="3.34" shape="608.64,1336.98 608.75,1337.01 609.41,1337.61 609.33,1338.50 608.51,1339.68"/>
    </edge>
    <edge id=":10855746723_w0" function="walkingarea">
        <lane id=":10855746723_w0_0" index="0" allow="pedestrian" speed="2.78" length="3.21" width="3.20" shape="611.44,1338.96 609.98,1335.23 608.81,1335.36 608.37,1335.22 607.93,1335.09 607.41,1335.05 606.75,1335.21 609.09,1341.17 610.03,1340.47 610.27,1340.06 610.50,1339.66 610.85,1339.29"/>
    </edge>
    <edge id=":10855746725_w0" function="walkingarea">
        <lane id=":10855746725_w0_0" index="0" allow="pedestrian" speed="2.78" length="0.94" width="2.00" shape="567.39,1493.16 569.25,1492.42 569.14,1492.15 567.28,1492.87"/>
    </edge>
    <edge id=":11069626687_0" function="internal">
        <lane id=":11069626687_0_0" index="0" disallow="pedestrian tram rail_urban rail rail_electric rail_fast ship" speed="3.65" length="4.67" shape="91.23,952.01 91.52,950.60 92.11,949.92 93.00,949.99 94.19,950.81"/>
    </edge>
    <edge id=":11310367_0" function="internal">
        <lane id=":11310367_0_0" index="0" disallow="pedestrian tram rail_urban rail rail_electric rail_fast ship" speed="13.89" length="34.49" shape="357.97,1084.98 356.11,1079.18 353.57,1070.26 350.98,1060.37 348.95,1051.70"/>
    </edge>
    <edge id=":11310367_1" function="internal">
        <lane id=":11310367_1_0" index="0" disallow="pedestrian bicycle tram rail_urban rail rail_electric rail_fast ship" speed="13.89" length="30.02" shape="357.97,1084.98 355.55,1076.70 354.77,1069.10 355.63,1062.16 358.15,1055.89"/>
    </edge>
    <edge id=":11310367_2" function="internal">
        <lane id=":11310367_2_0" index="0" disallow="pedestrian tram rail_urban rail rail_electric rail_fast ship" speed="3.65" length="4.68" shape="357.97,1084.98 358.36,1083.59 359.00,1082.96 359.88,1083.09 361.02,1083.99"/>
    </edge>
    <edge id=":11310367_3" function="internal">
        <lane id=":11310367_3_0" index="0" disallow="pedestrian bicycle tram rail_urban rail rail_electric rail_fast ship" speed="4.60" length="6.60" shape="352.09,1051.05 352.80,1053.75 353.57,1055.23 354.38,1055.49 355.24,1054.53"/>
    </edge>
    <edge id=":11310367_4" function="internal">
        <lane id=":11310367_4_0" index="0" disallow="pedestrian tram rail_urban rail rail_electric rail_fast ship" speed="13.89" length="34.14" shape="352.09,1051.05 353.67,1057.60 356.27,1067.60 359.02,1077.56 361.02,1083.99"/>
    </edge>
    <edge id=":11310367_5" function="internal">
        <lane id=":11310367_5_0" index="0" disallow="pedestrian tram rail_urban rail rail_electric rail_fast ship" speed="3.65" length="4.67" shape="352.09,1051.05 351.55,1052.39 350.85,1052.94 349.98,1052.71 348.95,1051.70"/>
    </edge>
    <edge id=":11310367_6" function="internal">
        <lane id=":11310367_6_0" index="0" disallow="pedestrian bicycle tram rail_urban rail rail_electric rail_fast ship" speed="13.89" length="25.84" shape="350.49,1081.27 351.50,1071.85 351.35,1064.67 350.38,1058.40 349.79,1055.62"/>
    </edge>
    <edge id=":11310367_7" function="internal">
        <lane id=":11310367_7_0" index="0" disallow="pedestrian bicycle tram rail_urban rail rail_electric rail_fast ship" speed="13.89" length="27.09" shape="350.49,1081.27 351.43,1072.66 351.81,1066.14 352.72,1060.50 355.24,1054.53"/>
        <lane id=":11310367_7_1" index="1" disallow="pedestrian bicycle tram rail_urban rail rail_electric rail_fast ship" speed="13.89" length="27.09" shape="353.37,1082.07 354.67,1073.73 355.02,1067.38 355.75,1061.83 358.15,1055.89"/>
    </edge>
    <edge id=":11310367_9" function="internal">
        <lane id=":11310367_9_0" index="0" disallow="pedestrian bicycle tram rail_urban rail rail_electric rail_fast ship" speed="6.36" length="15.05" shape="353.37,1082.07 354.82,1077.89 356.58,1076.81 358.64,1078.85 361.02,1083.99"/>
    </edge>
    <edge id=":11310367_10" function="internal">
        <lane id=":11310367_10_0" index="0" disallow="pedestrian bicycle tram rail_urban rail rail_electric rail_fast ship" speed="13.89" length="4.00" shape="349.79,1055.62 348.95,1051.70"/>
    </edge>
    <edge id=":11310367_c0" function="crossing" crossingEdges="27222780#0">
        <lane id=":11310367_c0_0" index="0" allow="pedestrian" speed="2.78" length="6.40" width="4.00" shape="352.86,1055.49 358.56,1058.42"/>
    </edge>
    <edge id=":11310367_c1" function="crossing" crossingEdges="-100177591 100177591">
        <lane id=":11310367_c1_0" index="0" allow="pedestrian" speed="2.78" length="6.40" width="4.00" shape="347.80,1053.99 354.06,1052.68"/>
    </edge>
    <edge id=":11310367_w0" function="walkingarea">
        <lane id=":11310367_w0_0" index="0" allow="pedestrian" speed="2.78" length="3.12" width="4.00" shape="362.52,1057.50 359.90,1056.03 359.48,1056.64 358.44,1059.52 357.98,1063.01 358.16,1067.15 358.97,1071.93 360.42,1077.36"/>
    </edge>
    <edge id=":11310367_w1" function="walkingarea">
        <lane id=":11310367_w1_0" index="0" allow="pedestrian" speed="2.78" length="18.98" width="4.00" shape="347.39,1052.03 345.43,1052.44 346.00,1080.22 348.96,1080.69 349.78,1074.88 350.17,1070.29 350.11,1066.48 349.60,1062.67 348.69,1058.12"/>
    </edge>
    <edge id=":11310367_w2" function="walkingarea">
        <lane id=":11310367_w2_0" index="0" allow="pedestrian" speed="2.78" length="3.06" width="4.00" shape="354.47,1054.63 353.65,1050.72 353.78,1053.71 351.95,1057.27"/>
    </edge>
    <edge id=":11310368_0" function="internal">
        <lane id=":11310368_0_0" index="0" disallow="pedestrian tram rail_urban rail rail_electric rail_fast ship" speed="3.65" length="4.67" shape="277.14,868.40 277.44,866.99 278.03,866.32 278.92,866.39 280.11,867.21"/>
    </edge>
    <edge id=":11401594536_0" function="internal">
        <lane id=":11401594536_0_0" index="0" allow="pedestrian delivery bicycle" speed="5.56" length="5.00" shape="654.56,1132.64 649.92,1134.50"/>
    </edge>
    <edge id=":11401594536_1" function="internal">
        <lane id=":11401594536_1_0" index="0" allow="pedestrian delivery bicycle" speed="3.65" length="4.67" shape="654.56,1132.64 653.15,1132.34 652.48,1131.75 652.55,1130.85 653.37,1129.67"/>
    </edge>
    <edge id=":11401594536_2" function="internal">
        <lane id=":11401594536_2_0" index="0" allow="pedestrian delivery bicycle" speed="5.56" length="5.00" shape="648.73,1131.53 653.37,1129.67"/>
    </edge>
    <edge id=":11401594536_3" function="internal">
        <lane id=":11401594536_3_0" index="0" allow="pedestrian delivery bicycle" speed="3.65" length="4.67" shape="648.73,1131.53 650.14,1131.82 650.81,1132.42 650.74,1133.31 649.92,1134.50"/>
    </edge>
    <edge id=":11401594536_w0" function="walkingarea">
        <lane id=":11401594536_w0_0" index="0" allow="pedestrian" speed="2.78" length="4.99" width="3.20" shape="655.16,1134.12 652.77,1128.18 651.93,1128.33 651.58,1128.25 651.27,1128.05 651.00,1127.74 650.78,1127.32 648.94,1128.10 649.11,1128.93 649.03,1129.28 648.84,1129.58 648.54,1129.83 648.13,1130.04 650.52,1135.98"/>
    </edge>
    <edge id=":11401594543_w0" function="walkingarea">
        <lane id=":11401594543_w0_0" index="0" allow="pedestrian" speed="2.78" length="3.68" width="2.00" shape="446.81,1313.46 448.67,1312.73 446.84,1308.08 444.98,1308.81 445.13,1309.64 445.04,1309.99 444.84,1310.28 444.54,1310.53 444.12,1310.72 444.82,1312.60 445.68,1312.46 446.04,1312.55 446.34,1312.75 446.60,1313.05"/>
    </edge>
    <edge id=":1227896819_0" function="internal">
        <lane id=":1227896819_0_0" index="0" allow="pedestrian delivery bicycle" speed="3.65" length="4.67" shape="909.24,1109.38 909.58,1107.98 910.19,1107.33 911.08,1107.43 912.24,1108.28"/>
    </edge>
    <edge id=":1290733016_0" function="internal">
        <lane id=":1290733016_0_0" index="0" allow="bicycle" speed="5.56" length="4.56" width="1.00" shape="354.35,1635.59 350.52,1633.13"/>
    </edge>
    <edge id=":1290733016_w0" function="walkingarea">
        <lane id=":1290733016_w0_0" index="0" allow="pedestrian" speed="2.78" length="3.39" width="2.00" shape="350.05,1633.82 349.15,1635.61 349.03,1636.77 349.71,1638.65 354.00,1637.12 353.25,1635.26 352.37,1637.15 353.97,1635.95"/>
    </edge>
    <edge id=":1290733168_0" function="internal">
        <lane id=":1290733168_0_0" index="0" allow="bicycle" speed="5.56" length="5.29" width="1.00" shape="363.04,1658.57 363.20,1657.06 362.98,1656.02 362.53,1654.99 362.00,1653.50"/>
    </edge>
    <edge id=":1290733168_w0" function="walkingarea">
        <lane id=":1290733168_w0_0" index="0" allow="pedestrian" speed="2.78" length="4.00" width="2.00" shape="361.52,1653.63 359.59,1654.17 358.37,1656.17 359.02,1658.06 360.48,1658.66 362.44,1659.06 362.69,1657.44 362.65,1656.67 362.47,1656.04 362.19,1655.41 361.86,1654.65"/>
    </edge>
    <edge id=":1290733314_0" function="internal">
        <lane id=":1290733314_0_0" index="0" allow="bicycle" speed="5.56" length="8.31" width="1.00" shape="376.00,1667.37 377.93,1668.92 379.34,1669.96 380.47,1671.20 381.56,1673.34"/>
    </edge>
    <edge id=":1290733314_w0" function="walkingarea">
        <lane id=":1290733314_w0_0" index="0" allow="pedestrian" speed="2.78" length="7.87" width="2.00" shape="382.02,1673.16 383.88,1672.41 379.63,1662.46 377.72,1663.05 377.67,1665.51 376.33,1667.00 377.73,1668.16 378.84,1668.98 379.76,1669.67 380.54,1670.45 381.27,1671.54"/>
    </edge>
    <edge id=":1290733362_0" function="internal">
        <lane id=":1290733362_0_0" index="0" allow="bicycle" speed="5.56" length="4.40" width="1.00" shape="368.26,1648.69 369.67,1652.85"/>
    </edge>
    <edge id=":1290733362_w0" function="walkingarea">
        <lane id=":1290733362_w0_0" index="0" allow="pedestrian" speed="2.78" length="3.14" width="2.00" shape="370.14,1652.68 372.01,1651.97 371.92,1650.41 371.26,1648.52 370.66,1647.99 368.74,1648.55"/>
    </edge>
    <edge id=":1290733425_w0" function="walkingarea">
        <lane id=":1290733425_w0_0" index="0" allow="pedestrian" speed="2.78" length="2.46" width="2.00" shape="178.81,1151.76 180.71,1151.11 180.58,1150.22 180.67,1149.86 180.88,1149.54 181.18,1149.28 181.60,1149.08 180.88,1147.21 176.21,1149.01 176.93,1150.88 177.76,1150.74 178.10,1150.83 178.39,1151.03 178.63,1151.34"/>
    </edge>
    <edge id=":130348088_0" function="internal">
        <lane id=":130348088_0_0" index="0" allow="pedestrian bicycle" speed="4.42" length="4.04" width="2.00" shape="1066.65,1270.92 1066.11,1269.95 1065.39,1269.39 1064.50,1269.24 1063.42,1269.51"/>
    </edge>
    <edge id=":130348088_1" function="internal">
        <lane id=":130348088_1_0" index="0" allow="pedestrian bicycle" speed="5.56" length="7.00" width="2.00" shape="1066.65,1270.92 1064.15,1264.38"/>
    </edge>
    <edge id=":130348088_2" function="internal">
        <lane id=":130348088_2_0" index="0" allow="pedestrian bicycle" speed="2.89" length="2.92" width="2.00" shape="1066.65,1270.92 1066.85,1270.04 1067.23,1269.63 1067.78,1269.68 1068.52,1270.20"/>
    </edge>
    <edge id=":130348088_3" function="internal">
        <lane id=":130348088_3_0" index="0" allow="pedestrian bicycle" speed="5.56" length="6.99" width="2.00" shape="1066.02,1263.67 1068.52,1270.20"/>
    </edge>
    <edge id=":130348088_4" function="internal">
        <lane id=":130348088_4_0" index="0" allow="pedestrian bicycle" speed="5.56" length="7.26" width="2.00" shape="1066.02,1263.67 1066.45,1265.59 1066.16,1267.21 1065.15,1268.51 1063.42,1269.51"/>
    </edge>
    <edge id=":130348088_5" function="internal">
        <lane id=":130348088_5_0" index="0" allow="pedestrian bicycle" speed="2.89" length="2.92" width="2.00" shape="1066.02,1263.67 1065.82,1264.55 1065.44,1264.96 1064.89,1264.91 1064.15,1264.38"/>
    </edge>
    <edge id=":130348088_6" function="internal">
        <lane id=":130348088_6_0" index="0" allow="pedestrian bicycle" speed="4.48" length="4.07" width="2.00" shape="1062.67,1267.65 1063.65,1267.09 1064.22,1266.36 1064.39,1265.46 1064.15,1264.38"/>
    </edge>
    <edge id=":130348088_7" function="internal">
        <lane id=":130348088_7_0" index="0" allow="pedestrian bicycle" speed="5.56" length="7.30" width="2.00" shape="1062.67,1267.65 1064.62,1267.18 1066.24,1267.44 1067.54,1268.45 1068.52,1270.20"/>
    </edge>
    <edge id=":130348088_8" function="internal">
        <lane id=":130348088_8_0" index="0" allow="pedestrian bicycle" speed="2.89" length="2.92" width="2.00" shape="1062.67,1267.65 1063.56,1267.84 1063.97,1268.21 1063.93,1268.76 1063.42,1269.51"/>
    </edge>
    <edge id=":130348088_w0" function="walkingarea">
        <lane id=":130348088_w0_0" index="0" allow="pedestrian" speed="2.78" length="5.01" width="2.00" shape="1065.72,1271.28 1069.45,1269.84 1066.96,1263.32 1063.22,1264.74 1063.35,1265.58 1063.26,1265.94 1063.05,1266.24 1062.73,1266.51 1062.30,1266.72 1063.79,1270.43 1064.62,1270.28 1064.97,1270.37 1065.27,1270.56 1065.52,1270.86"/>
    </edge>
    <edge id=":130355233_0" function="internal">
        <lane id=":130355233_0_0" index="0" allow="pedestrian delivery bicycle" speed="5.56" length="5.02" shape="799.94,1379.42 795.26,1381.23"/>
    </edge>
    <edge id=":130355233_1" function="internal">
        <lane id=":130355233_1_0" index="0" allow="pedestrian delivery bicycle" speed="3.65" length="4.67" shape="799.94,1379.42 798.53,1379.10 797.87,1378.49 797.96,1377.60 798.80,1376.43"/>
    </edge>
    <edge id=":130355233_2" function="internal">
        <lane id=":130355233_2_0" index="0" allow="pedestrian delivery bicycle" speed="5.56" length="5.05" shape="794.09,1378.25 798.80,1376.43"/>
    </edge>
    <edge id=":130355233_3" function="internal">
        <lane id=":130355233_3_0" index="0" allow="pedestrian delivery bicycle" speed="3.65" length="4.67" shape="794.09,1378.25 795.50,1378.56 796.16,1379.16 796.09,1380.05 795.26,1381.23"/>
    </edge>
    <edge id=":130355233_w0" function="walkingarea">