<?xml version="1.0" encoding="UTF-8"?>

<!-- generated on 2026-01-08 09:57:21 by Eclipse SUMO netedit Version 1.23.1
<neteditConfiguration xmlns:xsi="http://www.w3.org/2001/XMLSchema-instance" xsi:noNamespaceSchemaLocation="http://sumo.dlr.de/xsd/neteditConfiguration.xsd">

    <input>
        <sumo-net-file value="network_bikebox.net.xml"/>
    </input>

    <output>
        <output-file value="network_bikebox.net.xml"/>
    </output>

    <processing>
        <geometry.min-radius.fix.railways value="false"/>
        <geometry.avoid-overlap value="false"/>
        <geometry.max-grade.fix value="false"/>
        <offset.disable-normalization value="true"/>
        <lefthand value="0"/>
    </processing>

    <junctions>
        <no-turnarounds value="true"/>
        <junctions.corner-detail value="5"/>
        <junctions.limit-turn-speed value="5.50"/>
        <rectangular-lane-cut value="0"/>
    </junctions>

    <pedestrian>
        <walkingareas value="0"/>
    </pedestrian>

</neteditConfiguration>
-->

<net version="1.20" junctionCornerDetail="5" limitTurnSpeed="5.50" avoidOverlap="0" xmlns:xsi="http://www.w3.org/2001/XMLSchema-instance" xsi:noNamespaceSchemaLocation="http://sumo.dlr.de/xsd/net_file.xsd">

    <location netOffset="-689646.16,-5332989.32" convBoundary="384.56,601.28,703.26,878.09" origBoundary="11.548426,48.121891,11.573389,48.135759" projParameter="+proj=utm +zone=32 +ellps=WGS84 +datum=WGS84 +units=m +no_defs"/>

    <type id="cycleway.lane|highway.secondary" priority="11" numLanes="1" speed="27.78" disallow="tram rail_urban rail rail_electric rail_fast ship" oneway="0" bikeLaneWidth="1.25"/>
    <type id="highway.residential" priority="3" numLanes="1" speed="13.89" disallow="tram rail_urban rail rail_electric rail_fast ship" oneway="0"/>
    <type id="highway.secondary" priority="11" numLanes="1" speed="27.78" disallow="tram rail_urban rail rail_electric rail_fast ship" oneway="0"/>

    <edge id=":clusterJ0_J2_0" function="internal">
        <lane id=":clusterJ0_J2_0_0" index="0" disallow="bicycle" speed="13.89" length="1.90" width="7.90" shape="548.22,723.20 547.90,723.55 547.59,723.91 547.27,724.26 546.96,724.62"/>
    </edge>
    <edge id=":clusterJ0_J2_1" function="internal">
        <lane id=":clusterJ0_J2_1_0" index="0" allow="bicycle" speed="13.89" length="0.68" width="1.50" shape="552.52,726.76 552.38,726.90 552.26,726.97 552.13,727.04 551.99,727.19"/>
    </edge>
    <edge id=":clusterJ10_J12_J8_clusterJ3_J5_clusterJ12_J14_J17_clusterJ76_J78_0" function="internal">
        <lane id=":clusterJ10_J12_J8_clusterJ3_J5_clusterJ12_J14_J17_clusterJ76_J78_0_0" index="0" disallow="bicycle" speed="13.89" length="8.06" width="2.90" shape="475.03,698.46 468.68,693.50"/>
    </edge>
    <edge id=":clusterJ10_J12_J8_clusterJ3_J5_clusterJ12_J14_J17_clusterJ76_J78_1" function="internal">
        <lane id=":clusterJ10_J12_J8_clusterJ3_J5_clusterJ12_J14_J17_clusterJ76_J78_1_0" index="0" disallow="bicycle" speed="13.89" length="7.33" width="2.90" shape="474.32,686.98 480.12,691.47"/>
    </edge>
    <edge id=":clusterJ10_J12_J8_clusterJ3_J5_clusterJ12_J14_J17_clusterJ76_J78_2" function="internal">
        <lane id=":clusterJ10_J12_J8_clusterJ3_J5_clusterJ12_J14_J17_clusterJ76_J78_2_0" index="0" disallow="bicycle" speed="13.89" length="7.57" width="2.90" shape="472.45,689.13 478.43,693.78"/>
    </edge>
    <edge id=":clusterJ10_J12_J8_clusterJ3_J5_clusterJ12_J14_J17_clusterJ76_J78_3" function="internal">
        <lane id=":clusterJ10_J12_J8_clusterJ3_J5_clusterJ12_J14_J17_clusterJ76_J78_3_0" index="0" disallow="bicycle" speed="13.89" length="7.82" width="2.90" shape="470.58,691.30 476.75,696.10"/>
    </edge>
    <edge id=":clusterJ10_J12_J8_clusterJ3_J5_clusterJ12_J14_J17_clusterJ76_J78_4" function="internal">
        <lane id=":clusterJ10_J12_J8_clusterJ3_J5_clusterJ12_J14_J17_clusterJ76_J78_4_0" index="0" disallow="bicycle" speed="13.89" length="8.30" width="2.90" shape="473.37,700.74 466.84,695.62"/>
    </edge>
    <edge id=":clusterJ13_J56_0" function="internal">
        <lane id=":clusterJ13_J56_0_0" index="0" allow="bicycle" speed="13.89" length="2.68" width="1.50" shape="466.36,703.40 465.71,702.95 465.25,702.66 464.80,702.35 464.19,701.84"/>
    </edge>
    <edge id=":clusterJ15_J18_0" function="internal">
        <lane id=":clusterJ15_J18_0_0" index="0" allow="bicycle" speed="13.89" length="3.00" width="1.50" shape="555.09,740.10 557.63,741.70"/>
    </edge>
    <edge id=":clusterJ1_J2_0" function="internal">
        <lane id=":clusterJ1_J2_0_0" index="0" allow="bicycle" speed="13.89" length="3.07" width="1.50" shape="525.92,717.68 526.58,718.29 526.94,718.82 527.30,719.34 527.97,719.94"/>
    </edge>
    <edge id=":clusterJ1_clusterclusterJ13_J15_J18_clusterJ75_J77_clusterJ62_clusterJ11_J13_clusterJ17_clusterJ14_clusterJ10_J12_J4_clusterJ37_clusterJ36_clusterJ3_J9_clusterclusterJ25_J26_J28_clusterJ4_J6_J7_clusterJ53_clusterJ48_clusterJ27_J29_J35_clusterclusterJ33_clusterJ30_clusterJ24_clusterJ23_clusterJ6_J8_clusterclusterJ32_J34_clusterJ68_J69_0" function="internal">
        <lane id=":clusterJ1_clusterclusterJ13_J15_J18_clusterJ75_J77_clusterJ62_clusterJ11_J13_clusterJ17_clusterJ14_clusterJ10_J12_J4_clusterJ37_clusterJ36_clusterJ3_J9_clusterclusterJ25_J26_J28_clusterJ4_J6_J7_clusterJ53_clusterJ48_clusterJ27_J29_J35_clusterclusterJ33_clusterJ30_clusterJ24_clusterJ23_clusterJ6_J8_clusterclusterJ32_J34_clusterJ68_J69_0_0" index="0" disallow="bicycle" speed="7.96" length="15.69" shape="541.22,749.86 537.82,748.18 534.62,748.43 531.61,750.60 528.80,754.71"/>
    </edge>
    <edge id=":clusterJ1_clusterclusterJ13_J15_J18_clusterJ75_J77_clusterJ62_clusterJ11_J13_clusterJ17_clusterJ14_clusterJ10_J12_J4_clusterJ37_clusterJ36_clusterJ3_J9_clusterclusterJ25_J26_J28_clusterJ4_J6_J7_clusterJ53_clusterJ48_clusterJ27_J29_J35_clusterclusterJ33_clusterJ30_clusterJ24_clusterJ23_clusterJ6_J8_clusterclusterJ32_J34_clusterJ68_J69_1" function="internal">
        <lane id=":clusterJ1_clusterclusterJ13_J15_J18_clusterJ75_J77_clusterJ62_clusterJ11_J13_clusterJ17_clusterJ14_clusterJ10_J12_J4_clusterJ37_clusterJ36_clusterJ3_J9_clusterclusterJ25_J26_J28_clusterJ4_J6_J7_clusterJ53_clusterJ48_clusterJ27_J29_J35_clusterclusterJ33_clusterJ30_clusterJ24_clusterJ23_clusterJ6_J8_clusterclusterJ32_J34_clusterJ68_J69_1_0" index="0" disallow="bicycle" speed="13.89" length="24.79" width="2.90" shape="541.22,749.86 521.12,735.35"/>
    </edge>
    <edge id=":clusterJ1_clusterclusterJ13_J15_J18_clusterJ75_J77_clusterJ62_clusterJ11_J13_clusterJ17_clusterJ14_clusterJ10_J12_J4_clusterJ37_clusterJ36_clusterJ3_J9_clusterclusterJ25_J26_J28_clusterJ4_J6_J7_clusterJ53_clusterJ48_clusterJ27_J29_J35_clusterclusterJ33_clusterJ30_clusterJ24_clusterJ23_clusterJ6_J8_clusterclusterJ32_J34_clusterJ68_J69_2" function="internal">
        <lane id=":clusterJ1_clusterclusterJ13_J15_J18_clusterJ75_J77_clusterJ62_clusterJ11_J13_clusterJ17_clusterJ14_clusterJ10_J12_J4_clusterJ37_clusterJ36_clusterJ3_J9_clusterclusterJ25_J26_J28_clusterJ4_J6_J7_clusterJ53_clusterJ48_clusterJ27_J29_J35_clusterclusterJ33_clusterJ30_clusterJ24_clusterJ23_clusterJ6_J8_clusterclusterJ32_J34_clusterJ68_J69_2_0" index="0" disallow="bicycle" speed="13.89" length="25.02" width="2.90" shape="541.22,749.86 535.53,745.10 530.50,740.29 526.20,736.06 522.72,733.04"/>
    </edge>
    <edge id=":clusterJ1_clusterclusterJ13_J15_J18_clusterJ75_J77_clusterJ62_clusterJ11_J13_clusterJ17_clusterJ14_clusterJ10_J12_J4_clusterJ37_clusterJ36_clusterJ3_J9_clusterclusterJ25_J26_J28_clusterJ4_J6_J7_clusterJ53_clusterJ48_clusterJ27_J29_J35_clusterclusterJ33_clusterJ30_clusterJ24_clusterJ23_clusterJ6_J8_clusterclusterJ32_J34_clusterJ68_J69_3" function="internal">
        <lane id=":clusterJ1_clusterclusterJ13_J15_J18_clusterJ75_J77_clusterJ62_clusterJ11_J13_clusterJ17_clusterJ14_clusterJ10_J12_J4_clusterJ37_clusterJ36_clusterJ3_J9_clusterclusterJ25_J26_J28_clusterJ4_J6_J7_clusterJ53_clusterJ48_clusterJ27_J29_J35_clusterclusterJ33_clusterJ30_clusterJ24_clusterJ23_clusterJ6_J8_clusterclusterJ32_J34_clusterJ68_J69_3_0" index="0" disallow="bicycle" speed="10.74" length="6.67" width="5.00" shape="543.13,747.29 538.59,742.42"/>
    </edge>
    <edge id=":clusterJ1_clusterclusterJ13_J15_J18_clusterJ75_J77_clusterJ62_clusterJ11_J13_clusterJ17_clusterJ14_clusterJ10_J12_J4_clusterJ37_clusterJ36_clusterJ3_J9_clusterclusterJ25_J26_J28_clusterJ4_J6_J7_clusterJ53_clusterJ48_clusterJ27_J29_J35_clusterclusterJ33_clusterJ30_clusterJ24_clusterJ23_clusterJ6_J8_clusterclusterJ32_J34_clusterJ68_J69_44" function="internal">
        <lane id=":clusterJ1_clusterclusterJ13_J15_J18_clusterJ75_J77_clusterJ62_clusterJ11_J13_clusterJ17_clusterJ14_clusterJ10_J12_J4_clusterJ37_clusterJ36_clusterJ3_J9_clusterclusterJ25_J26_J28_clusterJ4_J6_J7_clusterJ53_clusterJ48_clusterJ27_J29_J35_clusterclusterJ33_clusterJ30_clusterJ24_clusterJ23_clusterJ6_J8_clusterclusterJ32_J34_clusterJ68_J69_44_0" index="0" disallow="bicycle" speed="10.74" length="20.19" width="5.00" shape="538.59,742.42 536.98,736.87 538.29,730.67 542.53,723.80"/>
    </edge>
    <edge id=":clusterJ1_clusterclusterJ13_J15_J18_clusterJ75_J77_clusterJ62_clusterJ11_J13_clusterJ17_clusterJ14_clusterJ10_J12_J4_clusterJ37_clusterJ36_clusterJ3_J9_clusterclusterJ25_J26_J28_clusterJ4_J6_J7_clusterJ53_clusterJ48_clusterJ27_J29_J35_clusterclusterJ33_clusterJ30_clusterJ24_clusterJ23_clusterJ6_J8_clusterclusterJ32_J34_clusterJ68_J69_4" function="internal">
        <lane id=":clusterJ1_clusterclusterJ13_J15_J18_clusterJ75_J77_clusterJ62_clusterJ11_J13_clusterJ17_clusterJ14_clusterJ10_J12_J4_clusterJ37_clusterJ36_clusterJ3_J9_clusterclusterJ25_J26_J28_clusterJ4_J6_J7_clusterJ53_clusterJ48_clusterJ27_J29_J35_clusterclusterJ33_clusterJ30_clusterJ24_clusterJ23_clusterJ6_J8_clusterclusterJ32_J34_clusterJ68_J69_4_0" index="0" allow="bicycle" speed="6.62" length="7.90" width="2.50" shape="550.11,729.78 548.93,732.36 549.51,734.91 550.87,736.94"/>
    </edge>
    <edge id=":clusterJ1_clusterclusterJ13_J15_J18_clusterJ75_J77_clusterJ62_clusterJ11_J13_clusterJ17_clusterJ14_clusterJ10_J12_J4_clusterJ37_clusterJ36_clusterJ3_J9_clusterclusterJ25_J26_J28_clusterJ4_J6_J7_clusterJ53_clusterJ48_clusterJ27_J29_J35_clusterclusterJ33_clusterJ30_clusterJ24_clusterJ23_clusterJ6_J8_clusterclusterJ32_J34_clusterJ68_J69_5" function="internal">
        <lane id=":clusterJ1_clusterclusterJ13_J15_J18_clusterJ75_J77_clusterJ62_clusterJ11_J13_clusterJ17_clusterJ14_clusterJ10_J12_J4_clusterJ37_clusterJ36_clusterJ3_J9_clusterclusterJ25_J26_J28_clusterJ4_J6_J7_clusterJ53_clusterJ48_clusterJ27_J29_J35_clusterclusterJ33_clusterJ30_clusterJ24_clusterJ23_clusterJ6_J8_clusterclusterJ32_J34_clusterJ68_J69_5_0" index="0" disallow="bicycle" speed="8.65" length="15.30" shape="547.53,727.76 545.11,731.77 544.33,735.36 545.18,738.50 547.67,741.22"/>
    </edge>
    <edge id=":clusterJ1_clusterclusterJ13_J15_J18_clusterJ75_J77_clusterJ62_clusterJ11_J13_clusterJ17_clusterJ14_clusterJ10_J12_J4_clusterJ37_clusterJ36_clusterJ3_J9_clusterclusterJ25_J26_J28_clusterJ4_J6_J7_clusterJ53_clusterJ48_clusterJ27_J29_J35_clusterclusterJ33_clusterJ30_clusterJ24_clusterJ23_clusterJ6_J8_clusterclusterJ32_J34_clusterJ68_J69_6" function="internal">
        <lane id=":clusterJ1_clusterclusterJ13_J15_J18_clusterJ75_J77_clusterJ62_clusterJ11_J13_clusterJ17_clusterJ14_clusterJ10_J12_J4_clusterJ37_clusterJ36_clusterJ3_J9_clusterclusterJ25_J26_J28_clusterJ4_J6_J7_clusterJ53_clusterJ48_clusterJ27_J29_J35_clusterclusterJ33_clusterJ30_clusterJ24_clusterJ23_clusterJ6_J8_clusterclusterJ32_J34_clusterJ68_J69_6_0" index="0" allow="bicycle" speed="13.89" length="32.56" width="1.50" shape="550.22,729.89 530.92,756.11"/>
    </edge>
    <edge id=":clusterJ1_clusterclusterJ13_J15_J18_clusterJ75_J77_clusterJ62_clusterJ11_J13_clusterJ17_clusterJ14_clusterJ10_J12_J4_clusterJ37_clusterJ36_clusterJ3_J9_clusterclusterJ25_J26_J28_clusterJ4_J6_J7_clusterJ53_clusterJ48_clusterJ27_J29_J35_clusterclusterJ33_clusterJ30_clusterJ24_clusterJ23_clusterJ6_J8_clusterclusterJ32_J34_clusterJ68_J69_7" function="internal">
        <lane id=":clusterJ1_clusterclusterJ13_J15_J18_clusterJ75_J77_clusterJ62_clusterJ11_J13_clusterJ17_clusterJ14_clusterJ10_J12_J4_clusterJ37_clusterJ36_clusterJ3_J9_clusterclusterJ25_J26_J28_clusterJ4_J6_J7_clusterJ53_clusterJ48_clusterJ27_J29_J35_clusterclusterJ33_clusterJ30_clusterJ24_clusterJ23_clusterJ6_J8_clusterclusterJ32_J34_clusterJ68_J69_7_0" index="0" disallow="bicycle" speed="13.89" length="32.83" shape="547.53,727.76 543.66,733.02 537.91,741.07 532.30,749.20 528.80,754.71"/>
    </edge>
    <edge id=":clusterJ1_clusterclusterJ13_J15_J18_clusterJ75_J77_clusterJ62_clusterJ11_J13_clusterJ17_clusterJ14_clusterJ10_J12_J4_clusterJ37_clusterJ36_clusterJ3_J9_clusterclusterJ25_J26_J28_clusterJ4_J6_J7_clusterJ53_clusterJ48_clusterJ27_J29_J35_clusterclusterJ33_clusterJ30_clusterJ24_clusterJ23_clusterJ6_J8_clusterclusterJ32_J34_clusterJ68_J69_8" function="internal">
        <lane id=":clusterJ1_clusterclusterJ13_J15_J18_clusterJ75_J77_clusterJ62_clusterJ11_J13_clusterJ17_clusterJ14_clusterJ10_J12_J4_clusterJ37_clusterJ36_clusterJ3_J9_clusterclusterJ25_J26_J28_clusterJ4_J6_J7_clusterJ53_clusterJ48_clusterJ27_J29_J35_clusterclusterJ33_clusterJ30_clusterJ24_clusterJ23_clusterJ6_J8_clusterclusterJ32_J34_clusterJ68_J69_8_0" index="0" allow="bicycle" speed="12.81" length="20.90" width="2.00" shape="545.40,726.07 538.15,735.81 531.87,741.49 531.59,741.54"/>
    </edge>
    <edge id=":clusterJ1_clusterclusterJ13_J15_J18_clusterJ75_J77_clusterJ62_clusterJ11_J13_clusterJ17_clusterJ14_clusterJ10_J12_J4_clusterJ37_clusterJ36_clusterJ3_J9_clusterclusterJ25_J26_J28_clusterJ4_J6_J7_clusterJ53_clusterJ48_clusterJ27_J29_J35_clusterclusterJ33_clusterJ30_clusterJ24_clusterJ23_clusterJ6_J8_clusterclusterJ32_J34_clusterJ68_J69_9" function="internal">
        <lane id=":clusterJ1_clusterclusterJ13_J15_J18_clusterJ75_J77_clusterJ62_clusterJ11_J13_clusterJ17_clusterJ14_clusterJ10_J12_J4_clusterJ37_clusterJ36_clusterJ3_J9_clusterclusterJ25_J26_J28_clusterJ4_J6_J7_clusterJ53_clusterJ48_clusterJ27_J29_J35_clusterclusterJ33_clusterJ30_clusterJ24_clusterJ23_clusterJ6_J8_clusterclusterJ32_J34_clusterJ68_J69_9_0" index="0" disallow="bicycle" speed="11.31" length="12.97" width="2.90" shape="547.53,727.76 542.43,732.10 536.59,734.39"/>
    </edge>
    <edge id=":clusterJ1_clusterclusterJ13_J15_J18_clusterJ75_J77_clusterJ62_clusterJ11_J13_clusterJ17_clusterJ14_clusterJ10_J12_J4_clusterJ37_clusterJ36_clusterJ3_J9_clusterclusterJ25_J26_J28_clusterJ4_J6_J7_clusterJ53_clusterJ48_clusterJ27_J29_J35_clusterclusterJ33_clusterJ30_clusterJ24_clusterJ23_clusterJ6_J8_clusterclusterJ32_J34_clusterJ68_J69_45" function="internal">
        <lane id=":clusterJ1_clusterclusterJ13_J15_J18_clusterJ75_J77_clusterJ62_clusterJ11_J13_clusterJ17_clusterJ14_clusterJ10_J12_J4_clusterJ37_clusterJ36_clusterJ3_J9_clusterclusterJ25_J26_J28_clusterJ4_J6_J7_clusterJ53_clusterJ48_clusterJ27_J29_J35_clusterclusterJ33_clusterJ30_clusterJ24_clusterJ23_clusterJ6_J8_clusterclusterJ32_J34_clusterJ68_J69_45_0" index="0" allow="bicycle" speed="12.81" length="14.28" width="2.00" shape="531.59,741.54 524.67,742.65 517.89,740.01"/>
    </edge>
    <edge id=":clusterJ1_clusterclusterJ13_J15_J18_clusterJ75_J77_clusterJ62_clusterJ11_J13_clusterJ17_clusterJ14_clusterJ10_J12_J4_clusterJ37_clusterJ36_clusterJ3_J9_clusterclusterJ25_J26_J28_clusterJ4_J6_J7_clusterJ53_clusterJ48_clusterJ27_J29_J35_clusterclusterJ33_clusterJ30_clusterJ24_clusterJ23_clusterJ6_J8_clusterclusterJ32_J34_clusterJ68_J69_46" function="internal">
        <lane id=":clusterJ1_clusterclusterJ13_J15_J18_clusterJ75_J77_clusterJ62_clusterJ11_J13_clusterJ17_clusterJ14_clusterJ10_J12_J4_clusterJ37_clusterJ36_clusterJ3_J9_clusterclusterJ25_J26_J28_clusterJ4_J6_J7_clusterJ53_clusterJ48_clusterJ27_J29_J35_clusterclusterJ33_clusterJ30_clusterJ24_clusterJ23_clusterJ6_J8_clusterclusterJ32_J34_clusterJ68_J69_46_0" index="0" disallow="bicycle" speed="11.31" length="14.33" width="2.90" shape="536.59,734.39 535.71,734.73 528.70,735.20 522.72,733.04"/>
    </edge>
    <edge id=":clusterJ1_clusterclusterJ13_J15_J18_clusterJ75_J77_clusterJ62_clusterJ11_J13_clusterJ17_clusterJ14_clusterJ10_J12_J4_clusterJ37_clusterJ36_clusterJ3_J9_clusterclusterJ25_J26_J28_clusterJ4_J6_J7_clusterJ53_clusterJ48_clusterJ27_J29_J35_clusterclusterJ33_clusterJ30_clusterJ24_clusterJ23_clusterJ6_J8_clusterclusterJ32_J34_clusterJ68_J69_10" function="internal">
        <lane id=":clusterJ1_clusterclusterJ13_J15_J18_clusterJ75_J77_clusterJ62_clusterJ11_J13_clusterJ17_clusterJ14_clusterJ10_J12_J4_clusterJ37_clusterJ36_clusterJ3_J9_clusterclusterJ25_J26_J28_clusterJ4_J6_J7_clusterJ53_clusterJ48_clusterJ27_J29_J35_clusterclusterJ33_clusterJ30_clusterJ24_clusterJ23_clusterJ6_J8_clusterclusterJ32_J34_clusterJ68_J69_10_0" index="0" allow="bicycle" speed="7.55" length="12.31" width="2.50" shape="530.52,721.78 534.08,723.92 537.10,724.84 539.59,724.54 541.55,723.02"/>
    </edge>
    <edge id=":clusterJ1_clusterclusterJ13_J15_J18_clusterJ75_J77_clusterJ62_clusterJ11_J13_clusterJ17_clusterJ14_clusterJ10_J12_J4_clusterJ37_clusterJ36_clusterJ3_J9_clusterclusterJ25_J26_J28_clusterJ4_J6_J7_clusterJ53_clusterJ48_clusterJ27_J29_J35_clusterclusterJ33_clusterJ30_clusterJ24_clusterJ23_clusterJ6_J8_clusterclusterJ32_J34_clusterJ68_J69_11" function="internal">
        <lane id=":clusterJ1_clusterclusterJ13_J15_J18_clusterJ75_J77_clusterJ62_clusterJ11_J13_clusterJ17_clusterJ14_clusterJ10_J12_J4_clusterJ37_clusterJ36_clusterJ3_J9_clusterclusterJ25_J26_J28_clusterJ4_J6_J7_clusterJ53_clusterJ48_clusterJ27_J29_J35_clusterclusterJ33_clusterJ30_clusterJ24_clusterJ23_clusterJ6_J8_clusterclusterJ32_J34_clusterJ68_J69_11_0" index="0" allow="bicycle" speed="13.89" length="25.38" width="2.50" shape="530.52,721.78 550.87,736.94"/>
    </edge>
    <edge id=":clusterJ1_clusterclusterJ13_J15_J18_clusterJ75_J77_clusterJ62_clusterJ11_J13_clusterJ17_clusterJ14_clusterJ10_J12_J4_clusterJ37_clusterJ36_clusterJ3_J9_clusterclusterJ25_J26_J28_clusterJ4_J6_J7_clusterJ53_clusterJ48_clusterJ27_J29_J35_clusterclusterJ33_clusterJ30_clusterJ24_clusterJ23_clusterJ6_J8_clusterclusterJ32_J34_clusterJ68_J69_12" function="internal">
        <lane id=":clusterJ1_clusterclusterJ13_J15_J18_clusterJ75_J77_clusterJ62_clusterJ11_J13_clusterJ17_clusterJ14_clusterJ10_J12_J4_clusterJ37_clusterJ36_clusterJ3_J9_clusterclusterJ25_J26_J28_clusterJ4_J6_J7_clusterJ53_clusterJ48_clusterJ27_J29_J35_clusterclusterJ33_clusterJ30_clusterJ24_clusterJ23_clusterJ6_J8_clusterclusterJ32_J34_clusterJ68_J69_12_0" index="0" allow="bicycle" speed="12.60" length="6.31" width="1.50" shape="530.52,721.78 533.50,727.33"/>
    </edge>
    <edge id=":clusterJ1_clusterclusterJ13_J15_J18_clusterJ75_J77_clusterJ62_clusterJ11_J13_clusterJ17_clusterJ14_clusterJ10_J12_J4_clusterJ37_clusterJ36_clusterJ3_J9_clusterclusterJ25_J26_J28_clusterJ4_J6_J7_clusterJ53_clusterJ48_clusterJ27_J29_J35_clusterclusterJ33_clusterJ30_clusterJ24_clusterJ23_clusterJ6_J8_clusterclusterJ32_J34_clusterJ68_J69_47" function="internal">
        <lane id=":clusterJ1_clusterclusterJ13_J15_J18_clusterJ75_J77_clusterJ62_clusterJ11_J13_clusterJ17_clusterJ14_clusterJ10_J12_J4_clusterJ37_clusterJ36_clusterJ3_J9_clusterclusterJ25_J26_J28_clusterJ4_J6_J7_clusterJ53_clusterJ48_clusterJ27_J29_J35_clusterclusterJ33_clusterJ30_clusterJ24_clusterJ23_clusterJ6_J8_clusterclusterJ32_J34_clusterJ68_J69_47_0" index="0" allow="bicycle" speed="12.60" length="29.46" width="1.50" shape="533.50,727.33 533.82,727.94 534.82,737.79 533.77,748.22 530.92,756.11"/>
    </edge>
    <edge id=":clusterJ1_clusterclusterJ13_J15_J18_clusterJ75_J77_clusterJ62_clusterJ11_J13_clusterJ17_clusterJ14_clusterJ10_J12_J4_clusterJ37_clusterJ36_clusterJ3_J9_clusterclusterJ25_J26_J28_clusterJ4_J6_J7_clusterJ53_clusterJ48_clusterJ27_J29_J35_clusterclusterJ33_clusterJ30_clusterJ24_clusterJ23_clusterJ6_J8_clusterclusterJ32_J34_clusterJ68_J69_13" function="internal">
        <lane id=":clusterJ1_clusterclusterJ13_J15_J18_clusterJ75_J77_clusterJ62_clusterJ11_J13_clusterJ17_clusterJ14_clusterJ10_J12_J4_clusterJ37_clusterJ36_clusterJ3_J9_clusterclusterJ25_J26_J28_clusterJ4_J6_J7_clusterJ53_clusterJ48_clusterJ27_J29_J35_clusterclusterJ33_clusterJ30_clusterJ24_clusterJ23_clusterJ6_J8_clusterclusterJ32_J34_clusterJ68_J69_13_0" index="0" disallow="bicycle" speed="8.83" length="17.07" width="5.00" shape="527.59,726.00 531.66,728.15 535.51,728.49 539.13,727.04 542.53,723.80"/>
    </edge>
    <edge id=":clusterJ1_clusterclusterJ13_J15_J18_clusterJ75_J77_clusterJ62_clusterJ11_J13_clusterJ17_clusterJ14_clusterJ10_J12_J4_clusterJ37_clusterJ36_clusterJ3_J9_clusterclusterJ25_J26_J28_clusterJ4_J6_J7_clusterJ53_clusterJ48_clusterJ27_J29_J35_clusterclusterJ33_clusterJ30_clusterJ24_clusterJ23_clusterJ6_J8_clusterclusterJ32_J34_clusterJ68_J69_14" function="internal">
        <lane id=":clusterJ1_clusterclusterJ13_J15_J18_clusterJ75_J77_clusterJ62_clusterJ11_J13_clusterJ17_clusterJ14_clusterJ10_J12_J4_clusterJ37_clusterJ36_clusterJ3_J9_clusterclusterJ25_J26_J28_clusterJ4_J6_J7_clusterJ53_clusterJ48_clusterJ27_J29_J35_clusterclusterJ33_clusterJ30_clusterJ24_clusterJ23_clusterJ6_J8_clusterclusterJ32_J34_clusterJ68_J69_14_0" index="0" disallow="bicycle" speed="13.89" length="25.19" shape="527.59,726.00 547.67,741.22"/>
    </edge>
    <edge id=":clusterJ1_clusterclusterJ13_J15_J18_clusterJ75_J77_clusterJ62_clusterJ11_J13_clusterJ17_clusterJ14_clusterJ10_J12_J4_clusterJ37_clusterJ36_clusterJ3_J9_clusterclusterJ25_J26_J28_clusterJ4_J6_J7_clusterJ53_clusterJ48_clusterJ27_J29_J35_clusterclusterJ33_clusterJ30_clusterJ24_clusterJ23_clusterJ6_J8_clusterclusterJ32_J34_clusterJ68_J69_15" function="internal">
        <lane id=":clusterJ1_clusterclusterJ13_J15_J18_clusterJ75_J77_clusterJ62_clusterJ11_J13_clusterJ17_clusterJ14_clusterJ10_J12_J4_clusterJ37_clusterJ36_clusterJ3_J9_clusterclusterJ25_J26_J28_clusterJ4_J6_J7_clusterJ53_clusterJ48_clusterJ27_J29_J35_clusterclusterJ33_clusterJ30_clusterJ24_clusterJ23_clusterJ6_J8_clusterclusterJ32_J34_clusterJ68_J69_15_0" index="0" disallow="bicycle" speed="12.34" length="8.34" shape="527.59,726.00 532.14,731.05 532.54,732.54"/>
    </edge>
    <edge id=":clusterJ1_clusterclusterJ13_J15_J18_clusterJ75_J77_clusterJ62_clusterJ11_J13_clusterJ17_clusterJ14_clusterJ10_J12_J4_clusterJ37_clusterJ36_clusterJ3_J9_clusterclusterJ25_J26_J28_clusterJ4_J6_J7_clusterJ53_clusterJ48_clusterJ27_J29_J35_clusterclusterJ33_clusterJ30_clusterJ24_clusterJ23_clusterJ6_J8_clusterclusterJ32_J34_clusterJ68_J69_16" function="internal">
        <lane id=":clusterJ1_clusterclusterJ13_J15_J18_clusterJ75_J77_clusterJ62_clusterJ11_J13_clusterJ17_clusterJ14_clusterJ10_J12_J4_clusterJ37_clusterJ36_clusterJ3_J9_clusterclusterJ25_J26_J28_clusterJ4_J6_J7_clusterJ53_clusterJ48_clusterJ27_J29_J35_clusterclusterJ33_clusterJ30_clusterJ24_clusterJ23_clusterJ6_J8_clusterclusterJ32_J34_clusterJ68_J69_16_0" index="0" disallow="bicycle" speed="5.07" length="7.28" width="2.90" shape="527.59,726.00 523.45,731.99"/>
    </edge>
    <edge id=":clusterJ1_clusterclusterJ13_J15_J18_clusterJ75_J77_clusterJ62_clusterJ11_J13_clusterJ17_clusterJ14_clusterJ10_J12_J4_clusterJ37_clusterJ36_clusterJ3_J9_clusterclusterJ25_J26_J28_clusterJ4_J6_J7_clusterJ53_clusterJ48_clusterJ27_J29_J35_clusterclusterJ33_clusterJ30_clusterJ24_clusterJ23_clusterJ6_J8_clusterclusterJ32_J34_clusterJ68_J69_48" function="internal">
        <lane id=":clusterJ1_clusterclusterJ13_J15_J18_clusterJ75_J77_clusterJ62_clusterJ11_J13_clusterJ17_clusterJ14_clusterJ10_J12_J4_clusterJ37_clusterJ36_clusterJ3_J9_clusterclusterJ25_J26_J28_clusterJ4_J6_J7_clusterJ53_clusterJ48_clusterJ27_J29_J35_clusterclusterJ33_clusterJ30_clusterJ24_clusterJ23_clusterJ6_J8_clusterclusterJ32_J34_clusterJ68_J69_48_0" index="0" disallow="bicycle" speed="12.34" length="23.22" shape="532.54,732.54 533.86,737.52 532.75,745.40 528.80,754.71"/>
    </edge>
    <edge id=":clusterJ1_clusterclusterJ13_J15_J18_clusterJ75_J77_clusterJ62_clusterJ11_J13_clusterJ17_clusterJ14_clusterJ10_J12_J4_clusterJ37_clusterJ36_clusterJ3_J9_clusterclusterJ25_J26_J28_clusterJ4_J6_J7_clusterJ53_clusterJ48_clusterJ27_J29_J35_clusterclusterJ33_clusterJ30_clusterJ24_clusterJ23_clusterJ6_J8_clusterclusterJ32_J34_clusterJ68_J69_49" function="internal">
        <lane id=":clusterJ1_clusterclusterJ13_J15_J18_clusterJ75_J77_clusterJ62_clusterJ11_J13_clusterJ17_clusterJ14_clusterJ10_J12_J4_clusterJ37_clusterJ36_clusterJ3_J9_clusterclusterJ25_J26_J28_clusterJ4_J6_J7_clusterJ53_clusterJ48_clusterJ27_J29_J35_clusterclusterJ33_clusterJ30_clusterJ24_clusterJ23_clusterJ6_J8_clusterclusterJ32_J34_clusterJ68_J69_49_0" index="0" disallow="bicycle" speed="5.07" length="4.09" width="2.90" shape="523.45,731.99 521.12,735.35"/>
    </edge>
    <edge id=":clusterJ1_clusterclusterJ13_J15_J18_clusterJ75_J77_clusterJ62_clusterJ11_J13_clusterJ17_clusterJ14_clusterJ10_J12_J4_clusterJ37_clusterJ36_clusterJ3_J9_clusterclusterJ25_J26_J28_clusterJ4_J6_J7_clusterJ53_clusterJ48_clusterJ27_J29_J35_clusterclusterJ33_clusterJ30_clusterJ24_clusterJ23_clusterJ6_J8_clusterclusterJ32_J34_clusterJ68_J69_17" function="internal">
        <lane id=":clusterJ1_clusterclusterJ13_J15_J18_clusterJ75_J77_clusterJ62_clusterJ11_J13_clusterJ17_clusterJ14_clusterJ10_J12_J4_clusterJ37_clusterJ36_clusterJ3_J9_clusterclusterJ25_J26_J28_clusterJ4_J6_J7_clusterJ53_clusterJ48_clusterJ27_J29_J35_clusterclusterJ33_clusterJ30_clusterJ24_clusterJ23_clusterJ6_J8_clusterclusterJ32_J34_clusterJ68_J69_17_0" index="0" disallow="bicycle" speed="9.37" length="19.34" width="5.00" shape="525.95,728.37 530.07,730.33 534.20,730.22 538.36,728.04 542.53,723.80"/>
    </edge>
    <edge id=":clusterJ1_clusterclusterJ13_J15_J18_clusterJ75_J77_clusterJ62_clusterJ11_J13_clusterJ17_clusterJ14_clusterJ10_J12_J4_clusterJ37_clusterJ36_clusterJ3_J9_clusterclusterJ25_J26_J28_clusterJ4_J6_J7_clusterJ53_clusterJ48_clusterJ27_J29_J35_clusterclusterJ33_clusterJ30_clusterJ24_clusterJ23_clusterJ6_J8_clusterclusterJ32_J34_clusterJ68_J69_18" function="internal">
        <lane id=":clusterJ1_clusterclusterJ13_J15_J18_clusterJ75_J77_clusterJ62_clusterJ11_J13_clusterJ17_clusterJ14_clusterJ10_J12_J4_clusterJ37_clusterJ36_clusterJ3_J9_clusterclusterJ25_J26_J28_clusterJ4_J6_J7_clusterJ53_clusterJ48_clusterJ27_J29_J35_clusterclusterJ33_clusterJ30_clusterJ24_clusterJ23_clusterJ6_J8_clusterclusterJ32_J34_clusterJ68_J69_18_0" index="0" disallow="bicycle" speed="13.89" length="25.26" shape="525.95,728.37 529.93,730.78 535.33,733.64 541.48,737.08 547.67,741.22"/>
    </edge>
    <edge id=":clusterJ1_clusterclusterJ13_J15_J18_clusterJ75_J77_clusterJ62_clusterJ11_J13_clusterJ17_clusterJ14_clusterJ10_J12_J4_clusterJ37_clusterJ36_clusterJ3_J9_clusterclusterJ25_J26_J28_clusterJ4_J6_J7_clusterJ53_clusterJ48_clusterJ27_J29_J35_clusterclusterJ33_clusterJ30_clusterJ24_clusterJ23_clusterJ6_J8_clusterclusterJ32_J34_clusterJ68_J69_19" function="internal">
        <lane id=":clusterJ1_clusterclusterJ13_J15_J18_clusterJ75_J77_clusterJ62_clusterJ11_J13_clusterJ17_clusterJ14_clusterJ10_J12_J4_clusterJ37_clusterJ36_clusterJ3_J9_clusterclusterJ25_J26_J28_clusterJ4_J6_J7_clusterJ53_clusterJ48_clusterJ27_J29_J35_clusterclusterJ33_clusterJ30_clusterJ24_clusterJ23_clusterJ6_J8_clusterclusterJ32_J34_clusterJ68_J69_19_0" index="0" disallow="bicycle" speed="11.89" length="20.52" shape="525.95,728.37 530.70,733.35 532.76,739.40 532.13,746.52 532.08,746.62"/>
    </edge>
    <edge id=":clusterJ1_clusterclusterJ13_J15_J18_clusterJ75_J77_clusterJ62_clusterJ11_J13_clusterJ17_clusterJ14_clusterJ10_J12_J4_clusterJ37_clusterJ36_clusterJ3_J9_clusterclusterJ25_J26_J28_clusterJ4_J6_J7_clusterJ53_clusterJ48_clusterJ27_J29_J35_clusterclusterJ33_clusterJ30_clusterJ24_clusterJ23_clusterJ6_J8_clusterclusterJ32_J34_clusterJ68_J69_20" function="internal">
        <lane id=":clusterJ1_clusterclusterJ13_J15_J18_clusterJ75_J77_clusterJ62_clusterJ11_J13_clusterJ17_clusterJ14_clusterJ10_J12_J4_clusterJ37_clusterJ36_clusterJ3_J9_clusterclusterJ25_J26_J28_clusterJ4_J6_J7_clusterJ53_clusterJ48_clusterJ27_J29_J35_clusterclusterJ33_clusterJ30_clusterJ24_clusterJ23_clusterJ6_J8_clusterclusterJ32_J34_clusterJ68_J69_20_0" index="0" disallow="bicycle" speed="4.49" length="8.48" width="2.90" shape="525.95,728.37 521.12,735.35"/>
    </edge>
    <edge id=":clusterJ1_clusterclusterJ13_J15_J18_clusterJ75_J77_clusterJ62_clusterJ11_J13_clusterJ17_clusterJ14_clusterJ10_J12_J4_clusterJ37_clusterJ36_clusterJ3_J9_clusterclusterJ25_J26_J28_clusterJ4_J6_J7_clusterJ53_clusterJ48_clusterJ27_J29_J35_clusterclusterJ33_clusterJ30_clusterJ24_clusterJ23_clusterJ6_J8_clusterclusterJ32_J34_clusterJ68_J69_21" function="internal">
        <lane id=":clusterJ1_clusterclusterJ13_J15_J18_clusterJ75_J77_clusterJ62_clusterJ11_J13_clusterJ17_clusterJ14_clusterJ10_J12_J4_clusterJ37_clusterJ36_clusterJ3_J9_clusterclusterJ25_J26_J28_clusterJ4_J6_J7_clusterJ53_clusterJ48_clusterJ27_J29_J35_clusterclusterJ33_clusterJ30_clusterJ24_clusterJ23_clusterJ6_J8_clusterclusterJ32_J34_clusterJ68_J69_21_0" index="0" disallow="bicycle" speed="3.85" length="5.67" width="2.90" shape="525.95,728.37 522.72,733.04"/>
    </edge>
    <edge id=":clusterJ1_clusterclusterJ13_J15_J18_clusterJ75_J77_clusterJ62_clusterJ11_J13_clusterJ17_clusterJ14_clusterJ10_J12_J4_clusterJ37_clusterJ36_clusterJ3_J9_clusterclusterJ25_J26_J28_clusterJ4_J6_J7_clusterJ53_clusterJ48_clusterJ27_J29_J35_clusterclusterJ33_clusterJ30_clusterJ24_clusterJ23_clusterJ6_J8_clusterclusterJ32_J34_clusterJ68_J69_50" function="internal">