<?xml version="1.0" encoding="UTF-8"?>

<!-- generated on 2025-12-22 21:11:08 by Eclipse SUMO netedit Version 1.23.1
<neteditConfiguration xmlns:xsi="http://www.w3.org/2001/XMLSchema-instance" xsi:noNamespaceSchemaLocation="http://sumo.dlr.de/xsd/neteditConfiguration.xsd">

    <input>
        <sumo-net-file value="network_new.net.xml"/>
    </input>

    <output>
        <output-file value="network_new.net.xml"/>
    </output>

    <processing>
        <geometry.min-radius.fix.railways value="false"/>
        <geometry.avoid-overlap value="false"/>
        <geometry.max-grade.fix value="false"/>
        <offset.disable-normalization value="true"/>
        <lefthand value="0"/>
    </processing>

    <junctions>
        <no-turnarounds value="true"/>
        <junctions.corner-detail value="5"/>
        <junctions.limit-turn-speed value="5.50"/>
        <rectangular-lane-cut value="0"/>
    </junctions>

    <pedestrian>
        <walkingareas value="0"/>
    </pedestrian>

</neteditConfiguration>
-->

<net version="1.20" junctionCornerDetail="5" limitTurnSpeed="5.50" avoidOverlap="0" xmlns:xsi="http://www.w3.org/2001/XMLSchema-instance" xsi:noNamespaceSchemaLocation="http://sumo.dlr.de/xsd/net_file.xsd">

    <location netOffset="-689646.16,-5332989.32" convBoundary="384.56,601.28,703.26,878.09" origBoundary="11.548426,48.121891,11.573389,48.135759" projParameter="+proj=utm +zone=32 +ellps=WGS84 +datum=WGS84 +units=m +no_defs"/>

    <type id="cycleway.lane|highway.secondary" priority="11" numLanes="1" speed="27.78" disallow="tram rail_urban rail rail_electric rail_fast ship" oneway="0" bikeLaneWidth="1.25"/>
    <type id="highway.residential" priority="3" numLanes="1" speed="13.89" disallow="tram rail_urban rail rail_electric rail_fast ship" oneway="0"/>
    <type id="highway.secondary" priority="11" numLanes="1" speed="27.78" disallow="tram rail_urban rail rail_electric rail_fast ship" oneway="0"/>

    <edge id=":clusterJ10_J12_J8_clusterJ3_J5_clusterJ12_J14_J17_clusterJ76_J78_0" function="internal">
        <lane id=":clusterJ10_J12_J8_clusterJ3_J5_clusterJ12_J14_J17_clusterJ76_J78_0_0" index="0" disallow="bicycle" speed="13.89" length="8.06" width="2.90" shape="475.03,698.46 468.68,693.50"/>
    </edge>
    <edge id=":clusterJ10_J12_J8_clusterJ3_J5_clusterJ12_J14_J17_clusterJ76_J78_1" function="internal">
        <lane id=":clusterJ10_J12_J8_clusterJ3_J5_clusterJ12_J14_J17_clusterJ76_J78_1_0" index="0" disallow="bicycle" speed="13.89" length="7.33" width="2.90" shape="474.32,686.98 480.12,691.47"/>
    </edge>
    <edge id=":clusterJ10_J12_J8_clusterJ3_J5_clusterJ12_J14_J17_clusterJ76_J78_2" function="internal">
        <lane id=":clusterJ10_J12_J8_clusterJ3_J5_clusterJ12_J14_J17_clusterJ76_J78_2_0" index="0" disallow="bicycle" speed="13.89" length="7.57" width="2.90" shape="472.45,689.13 478.43,693.78"/>
    </edge>
    <edge id=":clusterJ10_J12_J8_clusterJ3_J5_clusterJ12_J14_J17_clusterJ76_J78_3" function="internal">
        <lane id=":clusterJ10_J12_J8_clusterJ3_J5_clusterJ12_J14_J17_clusterJ76_J78_3_0" index="0" disallow="bicycle" speed="13.89" length="7.82" width="2.90" shape="470.58,691.30 476.75,696.10"/>
    </edge>
    <edge id=":clusterJ10_J12_J8_clusterJ3_J5_clusterJ12_J14_J17_clusterJ76_J78_4" function="internal">
        <lane id=":clusterJ10_J12_J8_clusterJ3_J5_clusterJ12_J14_J17_clusterJ76_J78_4_0" index="0" disallow="bicycle" speed="13.89" length="8.30" width="2.90" shape="473.37,700.74 466.84,695.62"/>
    </edge>
    <edge id=":clusterJ13_J56_0" function="internal">
        <lane id=":clusterJ13_J56_0_0" index="0" allow="bicycle" speed="13.89" length="2.68" width="1.50" shape="466.36,703.40 465.71,702.95 465.25,702.66 464.80,702.35 464.19,701.84"/>
    </edge>
    <edge id=":clusterJ15_J18_0" function="internal">
        <lane id=":clusterJ15_J18_0_0" index="0" allow="bicycle" speed="13.89" length="3.00" width="1.50" shape="555.09,740.10 557.63,741.70"/>
    </edge>
    <edge id=":clusterJ1_J2_0" function="internal">
        <lane id=":clusterJ1_J2_0_0" index="0" allow="bicycle" speed="13.89" length="3.07" width="1.50" shape="525.92,717.68 526.58,718.29 526.94,718.82 527.30,719.34 527.97,719.94"/>
    </edge>
    <edge id=":clusterJ21_J22_0" function="internal">
        <lane id=":clusterJ21_J22_0_0" index="0" allow="bicycle" speed="13.89" length="3.01" width="1.50" shape="549.93,764.34 547.66,762.37"/>
    </edge>
    <edge id=":clusterJ21_clusterJ0_J17_0" function="internal">
        <lane id=":clusterJ21_clusterJ0_J17_0_0" index="0" allow="bicycle" speed="13.89" length="3.73" width="1.50" shape="475.53,680.11 478.52,682.34"/>
    </edge>
    <edge id=":clusterJ22_J25_clusterJ67_J70_0" function="internal">
        <lane id=":clusterJ22_J25_clusterJ67_J70_0_0" index="0" disallow="bicycle" speed="13.89" length="0.33" shape="590.91,787.47 590.64,787.26"/>
        <lane id=":clusterJ22_J25_clusterJ67_J70_0_1" index="1" disallow="bicycle" speed="13.89" length="0.33" shape="592.83,784.90 592.57,784.71"/>
    </edge>
    <edge id=":clusterJ22_J25_clusterJ67_J70_2" function="internal">
        <lane id=":clusterJ22_J25_clusterJ67_J70_2_0" index="0" disallow="bicycle" speed="13.89" length="0.30" shape="597.21,778.58 597.43,778.77"/>
        <lane id=":clusterJ22_J25_clusterJ67_J70_2_1" index="1" disallow="bicycle" speed="13.89" length="0.30" shape="595.28,781.13 595.51,781.33"/>
    </edge>
    <edge id=":clusterJ2_J3_J5_clusterJ46_J47_clusterJ49_J52_0" function="internal">
        <lane id=":clusterJ2_J3_J5_clusterJ46_J47_clusterJ49_J52_0_0" index="0" allow="bicycle" speed="8.64" length="17.85" width="1.00" shape="513.21,779.46 512.79,772.91 511.53,768.28 509.44,765.55 506.50,764.74"/>
    </edge>
    <edge id=":clusterJ2_J3_J5_clusterJ46_J47_clusterJ49_J52_1" function="internal">
        <lane id=":clusterJ2_J3_J5_clusterJ46_J47_clusterJ49_J52_1_0" index="0" allow="bicycle" speed="13.89" length="21.63" width="1.50" shape="513.21,779.46 512.89,774.61 512.37,768.49 512.29,762.49 513.33,757.98"/>
    </edge>
    <edge id=":clusterJ2_J3_J5_clusterJ46_J47_clusterJ49_J52_2" function="internal">
        <lane id=":clusterJ2_J3_J5_clusterJ46_J47_clusterJ49_J52_2_0" index="0" allow="bicycle" speed="13.89" length="20.25" width="1.50" shape="513.21,779.46 513.34,774.86 513.81,769.28 514.73,763.82 516.20,759.56"/>
    </edge>
    <edge id=":clusterJ2_J3_J5_clusterJ46_J47_clusterJ49_J52_3" function="internal">
        <lane id=":clusterJ2_J3_J5_clusterJ46_J47_clusterJ49_J52_3_0" index="0" speed="13.89" length="21.30" shape="515.62,779.46 515.04,774.68 513.94,768.70 513.30,762.83 514.07,758.39"/>
    </edge>
    <edge id=":clusterJ2_J3_J5_clusterJ46_J47_clusterJ49_J52_4" function="internal">
        <lane id=":clusterJ2_J3_J5_clusterJ46_J47_clusterJ49_J52_4_0" index="0" disallow="bicycle" speed="13.89" length="18.72" shape="515.62,779.46 515.43,775.60 515.34,771.36 516.09,766.50 518.40,760.76"/>
        <lane id=":clusterJ2_J3_J5_clusterJ46_J47_clusterJ49_J52_4_1" index="1" disallow="bicycle" speed="13.89" length="18.72" shape="515.62,779.46 515.90,775.79 516.82,771.99 518.54,767.64 521.21,762.30"/>
    </edge>
    <edge id=":clusterJ2_J3_J5_clusterJ46_J47_clusterJ49_J52_6" function="internal">
        <lane id=":clusterJ2_J3_J5_clusterJ46_J47_clusterJ49_J52_6_0" index="0" speed="8.43" length="9.31" shape="506.42,762.91 508.89,762.54 510.98,761.67 512.71,760.29 514.07,758.39"/>
    </edge>
    <edge id=":clusterJ2_J3_J5_clusterJ46_J47_clusterJ49_J52_7" function="internal">
        <lane id=":clusterJ2_J3_J5_clusterJ46_J47_clusterJ49_J52_7_0" index="0" allow="bicycle" speed="8.84" length="10.37" width="1.50" shape="506.39,762.06 510.24,761.77 513.16,761.26 515.15,760.52 516.20,759.56"/>
    </edge>
    <edge id=":clusterJ2_J3_J5_clusterJ46_J47_clusterJ49_J52_8" function="internal">
        <lane id=":clusterJ2_J3_J5_clusterJ46_J47_clusterJ49_J52_8_0" index="0" disallow="bicycle" speed="9.57" length="12.34" shape="506.42,762.91 511.32,762.61 514.95,762.15 517.31,761.53 518.40,760.76"/>
        <lane id=":clusterJ2_J3_J5_clusterJ46_J47_clusterJ49_J52_8_1" index="1" disallow="bicycle" speed="10.45" length="14.83" shape="506.42,762.91 509.09,762.92 514.01,762.92 518.84,762.76 521.21,762.30"/>
    </edge>
    <edge id=":clusterJ54_J55_0" function="internal">
        <lane id=":clusterJ54_J55_0_0" index="0" allow="bicycle" speed="13.89" length="2.99" width="1.50" shape="512.37,736.19 509.90,734.50"/>
    </edge>
    <edge id=":clusterJ57_clusterJ38_J39_0" function="internal">
        <lane id=":clusterJ57_clusterJ38_J39_0_0" index="0" speed="9.92" length="8.22" shape="544.23,721.65 545.33,719.68 545.36,718.05 544.88,716.26 544.43,713.83"/>
    </edge>
    <edge id=":clusterJ57_clusterJ38_J39_1" function="internal">
        <lane id=":clusterJ57_clusterJ38_J39_1_0" index="0" speed="13.89" length="9.77" shape="544.23,721.65 550.69,714.33"/>
    </edge>
    <edge id=":clusterJ60_clusterJ40_J41_J43_0" function="internal">
        <lane id=":clusterJ60_clusterJ40_J41_J43_0_0" index="0" allow="bicycle" speed="10.43" length="8.65" width="1.50" shape="559.78,697.79 562.26,697.66 564.59,696.79 567.51,694.55"/>
    </edge>
    <edge id=":clusterJ60_clusterJ40_J41_J43_1" function="internal">
        <lane id=":clusterJ60_clusterJ40_J41_J43_1_0" index="0" disallow="bicycle" speed="11.51" length="10.53" shape="560.06,699.22 562.91,699.57 565.33,699.28 567.40,697.95 569.31,695.95"/>
    </edge>
    <edge id=":clusterJ60_clusterJ40_J41_J43_2" function="internal">
        <lane id=":clusterJ60_clusterJ40_J41_J43_2_0" index="0" allow="bicycle" speed="13.89" length="9.59" width="1.50" shape="561.30,701.85 563.25,699.78 564.54,698.32 565.76,696.80 567.51,694.55"/>
    </edge>
    <edge id=":clusterJ60_clusterJ40_J41_J43_3" function="internal">
        <lane id=":clusterJ60_clusterJ40_J41_J43_3_0" index="0" disallow="bicycle" speed="13.89" length="9.88" shape="561.91,702.44 564.08,700.47 565.75,699.31 567.35,698.10 569.31,695.95"/>
    </edge>
    <edge id=":clusterJ61_J64_0" function="internal">
        <lane id=":clusterJ61_J64_0_0" index="0" disallow="bicycle" speed="13.89" length="22.56" shape="571.99,697.91 558.32,715.70"/>
        <lane id=":clusterJ61_J64_0_1" index="1" disallow="bicycle" speed="13.89" length="22.56" shape="571.99,697.91 569.04,700.95 565.05,704.35 560.48,708.49 555.79,713.74"/>
    </edge>
    <edge id=":clusterclusterJ13_J15_J18_clusterJ75_J77_clusterJ62_clusterJ11_J13_clusterJ17_clusterJ14_clusterJ10_J12_J4_clusterJ37_clusterJ36_clusterJ3_J9_clusterclusterJ25_J26_J28_clusterJ4_J6_J7_clusterJ53_clusterJ48_clusterJ27_J29_J35_clusterclusterJ33_clusterJ30_clusterJ24_clusterJ23_clusterJ6_J8_clusterclusterJ32_J34_clusterJ68_J69_0" function="internal">
        <lane id=":clusterclusterJ13_J15_J18_clusterJ75_J77_clusterJ62_clusterJ11_J13_clusterJ17_clusterJ14_clusterJ10_J12_J4_clusterJ37_clusterJ36_clusterJ3_J9_clusterclusterJ25_J26_J28_clusterJ4_J6_J7_clusterJ53_clusterJ48_clusterJ27_J29_J35_clusterclusterJ33_clusterJ30_clusterJ24_clusterJ23_clusterJ6_J8_clusterclusterJ32_J34_clusterJ68_J69_0_0" index="0" disallow="bicycle" speed="7.96" length="15.69" shape="541.22,749.86 537.82,748.18 534.62,748.43 531.61,750.60 528.80,754.71"/>
    </edge>
    <edge id=":clusterclusterJ13_J15_J18_clusterJ75_J77_clusterJ62_clusterJ11_J13_clusterJ17_clusterJ14_clusterJ10_J12_J4_clusterJ37_clusterJ36_clusterJ3_J9_clusterclusterJ25_J26_J28_clusterJ4_J6_J7_clusterJ53_clusterJ48_clusterJ27_J29_J35_clusterclusterJ33_clusterJ30_clusterJ24_clusterJ23_clusterJ6_J8_clusterclusterJ32_J34_clusterJ68_J69_1" function="internal">
        <lane id=":clusterclusterJ13_J15_J18_clusterJ75_J77_clusterJ62_clusterJ11_J13_clusterJ17_clusterJ14_clusterJ10_J12_J4_clusterJ37_clusterJ36_clusterJ3_J9_clusterclusterJ25_J26_J28_clusterJ4_J6_J7_clusterJ53_clusterJ48_clusterJ27_J29_J35_clusterclusterJ33_clusterJ30_clusterJ24_clusterJ23_clusterJ6_J8_clusterclusterJ32_J34_clusterJ68_J69_1_0" index="0" disallow="bicycle" speed="13.89" length="24.79" width="2.90" shape="541.22,749.86 521.12,735.35"/>
    </edge>
    <edge id=":clusterclusterJ13_J15_J18_clusterJ75_J77_clusterJ62_clusterJ11_J13_clusterJ17_clusterJ14_clusterJ10_J12_J4_clusterJ37_clusterJ36_clusterJ3_J9_clusterclusterJ25_J26_J28_clusterJ4_J6_J7_clusterJ53_clusterJ48_clusterJ27_J29_J35_clusterclusterJ33_clusterJ30_clusterJ24_clusterJ23_clusterJ6_J8_clusterclusterJ32_J34_clusterJ68_J69_2" function="internal">
        <lane id=":clusterclusterJ13_J15_J18_clusterJ75_J77_clusterJ62_clusterJ11_J13_clusterJ17_clusterJ14_clusterJ10_J12_J4_clusterJ37_clusterJ36_clusterJ3_J9_clusterclusterJ25_J26_J28_clusterJ4_J6_J7_clusterJ53_clusterJ48_clusterJ27_J29_J35_clusterclusterJ33_clusterJ30_clusterJ24_clusterJ23_clusterJ6_J8_clusterclusterJ32_J34_clusterJ68_J69_2_0" index="0" disallow="bicycle" speed="13.89" length="24.90" width="2.90" shape="543.13,747.29 522.72,733.04"/>
    </edge>
    <edge id=":clusterclusterJ13_J15_J18_clusterJ75_J77_clusterJ62_clusterJ11_J13_clusterJ17_clusterJ14_clusterJ10_J12_J4_clusterJ37_clusterJ36_clusterJ3_J9_clusterclusterJ25_J26_J28_clusterJ4_J6_J7_clusterJ53_clusterJ48_clusterJ27_J29_J35_clusterclusterJ33_clusterJ30_clusterJ24_clusterJ23_clusterJ6_J8_clusterclusterJ32_J34_clusterJ68_J69_3" function="internal">
        <lane id=":clusterclusterJ13_J15_J18_clusterJ75_J77_clusterJ62_clusterJ11_J13_clusterJ17_clusterJ14_clusterJ10_J12_J4_clusterJ37_clusterJ36_clusterJ3_J9_clusterclusterJ25_J26_J28_clusterJ4_J6_J7_clusterJ53_clusterJ48_clusterJ27_J29_J35_clusterclusterJ33_clusterJ30_clusterJ24_clusterJ23_clusterJ6_J8_clusterclusterJ32_J34_clusterJ68_J69_3_0" index="0" allow="bicycle" speed="5.98" length="8.11" width="1.50" shape="550.22,729.88 549.05,731.88 548.77,733.73 549.37,735.41 550.87,736.94"/>
    </edge>
    <edge id=":clusterclusterJ13_J15_J18_clusterJ75_J77_clusterJ62_clusterJ11_J13_clusterJ17_clusterJ14_clusterJ10_J12_J4_clusterJ37_clusterJ36_clusterJ3_J9_clusterclusterJ25_J26_J28_clusterJ4_J6_J7_clusterJ53_clusterJ48_clusterJ27_J29_J35_clusterclusterJ33_clusterJ30_clusterJ24_clusterJ23_clusterJ6_J8_clusterclusterJ32_J34_clusterJ68_J69_4" function="internal">
        <lane id=":clusterclusterJ13_J15_J18_clusterJ75_J77_clusterJ62_clusterJ11_J13_clusterJ17_clusterJ14_clusterJ10_J12_J4_clusterJ37_clusterJ36_clusterJ3_J9_clusterclusterJ25_J26_J28_clusterJ4_J6_J7_clusterJ53_clusterJ48_clusterJ27_J29_J35_clusterclusterJ33_clusterJ30_clusterJ24_clusterJ23_clusterJ6_J8_clusterclusterJ32_J34_clusterJ68_J69_4_0" index="0" allow="bicycle" speed="13.89" length="32.56" width="1.50" shape="550.22,729.88 530.92,756.11"/>
    </edge>
    <edge id=":clusterclusterJ13_J15_J18_clusterJ75_J77_clusterJ62_clusterJ11_J13_clusterJ17_clusterJ14_clusterJ10_J12_J4_clusterJ37_clusterJ36_clusterJ3_J9_clusterclusterJ25_J26_J28_clusterJ4_J6_J7_clusterJ53_clusterJ48_clusterJ27_J29_J35_clusterclusterJ33_clusterJ30_clusterJ24_clusterJ23_clusterJ6_J8_clusterclusterJ32_J34_clusterJ68_J69_5" function="internal">
        <lane id=":clusterclusterJ13_J15_J18_clusterJ75_J77_clusterJ62_clusterJ11_J13_clusterJ17_clusterJ14_clusterJ10_J12_J4_clusterJ37_clusterJ36_clusterJ3_J9_clusterclusterJ25_J26_J28_clusterJ4_J6_J7_clusterJ53_clusterJ48_clusterJ27_J29_J35_clusterclusterJ33_clusterJ30_clusterJ24_clusterJ23_clusterJ6_J8_clusterclusterJ32_J34_clusterJ68_J69_5_0" index="0" allow="bicycle" speed="13.89" length="27.00" width="1.50" shape="550.28,729.92 541.31,742.04 538.38,748.57 536.89,751.70 535.76,751.07"/>
    </edge>
    <edge id=":clusterclusterJ13_J15_J18_clusterJ75_J77_clusterJ62_clusterJ11_J13_clusterJ17_clusterJ14_clusterJ10_J12_J4_clusterJ37_clusterJ36_clusterJ3_J9_clusterclusterJ25_J26_J28_clusterJ4_J6_J7_clusterJ53_clusterJ48_clusterJ27_J29_J35_clusterclusterJ33_clusterJ30_clusterJ24_clusterJ23_clusterJ6_J8_clusterclusterJ32_J34_clusterJ68_J69_25" function="internal">
        <lane id=":clusterclusterJ13_J15_J18_clusterJ75_J77_clusterJ62_clusterJ11_J13_clusterJ17_clusterJ14_clusterJ10_J12_J4_clusterJ37_clusterJ36_clusterJ3_J9_clusterclusterJ25_J26_J28_clusterJ4_J6_J7_clusterJ53_clusterJ48_clusterJ27_J29_J35_clusterclusterJ33_clusterJ30_clusterJ24_clusterJ23_clusterJ6_J8_clusterclusterJ32_J34_clusterJ68_J69_25_0" index="0" allow="bicycle" speed="13.89" length="21.06" width="1.50" shape="535.76,751.07 523.42,744.19 517.89,740.01"/>
    </edge>
    <edge id=":clusterclusterJ13_J15_J18_clusterJ75_J77_clusterJ62_clusterJ11_J13_clusterJ17_clusterJ14_clusterJ10_J12_J4_clusterJ37_clusterJ36_clusterJ3_J9_clusterclusterJ25_J26_J28_clusterJ4_J6_J7_clusterJ53_clusterJ48_clusterJ27_J29_J35_clusterclusterJ33_clusterJ30_clusterJ24_clusterJ23_clusterJ6_J8_clusterclusterJ32_J34_clusterJ68_J69_6" function="internal">
        <lane id=":clusterclusterJ13_J15_J18_clusterJ75_J77_clusterJ62_clusterJ11_J13_clusterJ17_clusterJ14_clusterJ10_J12_J4_clusterJ37_clusterJ36_clusterJ3_J9_clusterclusterJ25_J26_J28_clusterJ4_J6_J7_clusterJ53_clusterJ48_clusterJ27_J29_J35_clusterclusterJ33_clusterJ30_clusterJ24_clusterJ23_clusterJ6_J8_clusterclusterJ32_J34_clusterJ68_J69_6_0" index="0" disallow="bicycle" speed="8.03" length="14.45" shape="548.43,728.46 545.94,732.41 544.98,735.86 545.56,738.79 547.67,741.22"/>
    </edge>
    <edge id=":clusterclusterJ13_J15_J18_clusterJ75_J77_clusterJ62_clusterJ11_J13_clusterJ17_clusterJ14_clusterJ10_J12_J4_clusterJ37_clusterJ36_clusterJ3_J9_clusterclusterJ25_J26_J28_clusterJ4_J6_J7_clusterJ53_clusterJ48_clusterJ27_J29_J35_clusterclusterJ33_clusterJ30_clusterJ24_clusterJ23_clusterJ6_J8_clusterclusterJ32_J34_clusterJ68_J69_7" function="internal">
        <lane id=":clusterclusterJ13_J15_J18_clusterJ75_J77_clusterJ62_clusterJ11_J13_clusterJ17_clusterJ14_clusterJ10_J12_J4_clusterJ37_clusterJ36_clusterJ3_J9_clusterclusterJ25_J26_J28_clusterJ4_J6_J7_clusterJ53_clusterJ48_clusterJ27_J29_J35_clusterclusterJ33_clusterJ30_clusterJ24_clusterJ23_clusterJ6_J8_clusterclusterJ32_J34_clusterJ68_J69_7_0" index="0" disallow="bicycle" speed="13.89" length="32.79" shape="548.43,728.46 543.11,735.28 537.20,742.90 532.00,749.86 528.80,754.71"/>
    </edge>
    <edge id=":clusterclusterJ13_J15_J18_clusterJ75_J77_clusterJ62_clusterJ11_J13_clusterJ17_clusterJ14_clusterJ10_J12_J4_clusterJ37_clusterJ36_clusterJ3_J9_clusterclusterJ25_J26_J28_clusterJ4_J6_J7_clusterJ53_clusterJ48_clusterJ27_J29_J35_clusterclusterJ33_clusterJ30_clusterJ24_clusterJ23_clusterJ6_J8_clusterclusterJ32_J34_clusterJ68_J69_8" function="internal">
        <lane id=":clusterclusterJ13_J15_J18_clusterJ75_J77_clusterJ62_clusterJ11_J13_clusterJ17_clusterJ14_clusterJ10_J12_J4_clusterJ37_clusterJ36_clusterJ3_J9_clusterclusterJ25_J26_J28_clusterJ4_J6_J7_clusterJ53_clusterJ48_clusterJ27_J29_J35_clusterclusterJ33_clusterJ30_clusterJ24_clusterJ23_clusterJ6_J8_clusterclusterJ32_J34_clusterJ68_J69_8_0" index="0" disallow="bicycle" speed="11.36" length="12.95" width="2.90" shape="545.92,726.47 541.21,732.94 539.15,735.67 537.70,736.14"/>
    </edge>
    <edge id=":clusterclusterJ13_J15_J18_clusterJ75_J77_clusterJ62_clusterJ11_J13_clusterJ17_clusterJ14_clusterJ10_J12_J4_clusterJ37_clusterJ36_clusterJ3_J9_clusterclusterJ25_J26_J28_clusterJ4_J6_J7_clusterJ53_clusterJ48_clusterJ27_J29_J35_clusterclusterJ33_clusterJ30_clusterJ24_clusterJ23_clusterJ6_J8_clusterclusterJ32_J34_clusterJ68_J69_26" function="internal">
        <lane id=":clusterclusterJ13_J15_J18_clusterJ75_J77_clusterJ62_clusterJ11_J13_clusterJ17_clusterJ14_clusterJ10_J12_J4_clusterJ37_clusterJ36_clusterJ3_J9_clusterclusterJ25_J26_J28_clusterJ4_J6_J7_clusterJ53_clusterJ48_clusterJ27_J29_J35_clusterclusterJ33_clusterJ30_clusterJ24_clusterJ23_clusterJ6_J8_clusterclusterJ32_J34_clusterJ68_J69_26_0" index="0" disallow="bicycle" speed="11.36" length="15.97" width="2.90" shape="537.70,736.14 534.19,737.29 528.52,735.78 522.72,733.04"/>
    </edge>
    <edge id=":clusterclusterJ13_J15_J18_clusterJ75_J77_clusterJ62_clusterJ11_J13_clusterJ17_clusterJ14_clusterJ10_J12_J4_clusterJ37_clusterJ36_clusterJ3_J9_clusterclusterJ25_J26_J28_clusterJ4_J6_J7_clusterJ53_clusterJ48_clusterJ27_J29_J35_clusterclusterJ33_clusterJ30_clusterJ24_clusterJ23_clusterJ6_J8_clusterclusterJ32_J34_clusterJ68_J69_9" function="internal">
        <lane id=":clusterclusterJ13_J15_J18_clusterJ75_J77_clusterJ62_clusterJ11_J13_clusterJ17_clusterJ14_clusterJ10_J12_J4_clusterJ37_clusterJ36_clusterJ3_J9_clusterclusterJ25_J26_J28_clusterJ4_J6_J7_clusterJ53_clusterJ48_clusterJ27_J29_J35_clusterclusterJ33_clusterJ30_clusterJ24_clusterJ23_clusterJ6_J8_clusterclusterJ32_J34_clusterJ68_J69_9_0" index="0" allow="bicycle" speed="7.55" length="12.31" width="2.50" shape="530.52,721.78 534.08,723.92 537.10,724.84 539.59,724.54 541.55,723.01"/>
    </edge>
    <edge id=":clusterclusterJ13_J15_J18_clusterJ75_J77_clusterJ62_clusterJ11_J13_clusterJ17_clusterJ14_clusterJ10_J12_J4_clusterJ37_clusterJ36_clusterJ3_J9_clusterclusterJ25_J26_J28_clusterJ4_J6_J7_clusterJ53_clusterJ48_clusterJ27_J29_J35_clusterclusterJ33_clusterJ30_clusterJ24_clusterJ23_clusterJ6_J8_clusterclusterJ32_J34_clusterJ68_J69_10" function="internal">
        <lane id=":clusterclusterJ13_J15_J18_clusterJ75_J77_clusterJ62_clusterJ11_J13_clusterJ17_clusterJ14_clusterJ10_J12_J4_clusterJ37_clusterJ36_clusterJ3_J9_clusterclusterJ25_J26_J28_clusterJ4_J6_J7_clusterJ53_clusterJ48_clusterJ27_J29_J35_clusterclusterJ33_clusterJ30_clusterJ24_clusterJ23_clusterJ6_J8_clusterclusterJ32_J34_clusterJ68_J69_10_0" index="0" allow="bicycle" speed="13.89" length="25.38" width="2.50" shape="530.52,721.78 550.87,736.94"/>
    </edge>
    <edge id=":clusterclusterJ13_J15_J18_clusterJ75_J77_clusterJ62_clusterJ11_J13_clusterJ17_clusterJ14_clusterJ10_J12_J4_clusterJ37_clusterJ36_clusterJ3_J9_clusterclusterJ25_J26_J28_clusterJ4_J6_J7_clusterJ53_clusterJ48_clusterJ27_J29_J35_clusterclusterJ33_clusterJ30_clusterJ24_clusterJ23_clusterJ6_J8_clusterclusterJ32_J34_clusterJ68_J69_11" function="internal">
        <lane id=":clusterclusterJ13_J15_J18_clusterJ75_J77_clusterJ62_clusterJ11_J13_clusterJ17_clusterJ14_clusterJ10_J12_J4_clusterJ37_clusterJ36_clusterJ3_J9_clusterclusterJ25_J26_J28_clusterJ4_J6_J7_clusterJ53_clusterJ48_clusterJ27_J29_J35_clusterclusterJ33_clusterJ30_clusterJ24_clusterJ23_clusterJ6_J8_clusterclusterJ32_J34_clusterJ68_J69_11_0" index="0" allow="bicycle" speed="13.89" length="20.00" width="1.50" shape="530.52,721.78 539.47,728.73 540.82,730.98 544.55,735.73"/>
    </edge>
    <edge id=":clusterclusterJ13_J15_J18_clusterJ75_J77_clusterJ62_clusterJ11_J13_clusterJ17_clusterJ14_clusterJ10_J12_J4_clusterJ37_clusterJ36_clusterJ3_J9_clusterclusterJ25_J26_J28_clusterJ4_J6_J7_clusterJ53_clusterJ48_clusterJ27_J29_J35_clusterclusterJ33_clusterJ30_clusterJ24_clusterJ23_clusterJ6_J8_clusterclusterJ32_J34_clusterJ68_J69_27" function="internal">
        <lane id=":clusterclusterJ13_J15_J18_clusterJ75_J77_clusterJ62_clusterJ11_J13_clusterJ17_clusterJ14_clusterJ10_J12_J4_clusterJ37_clusterJ36_clusterJ3_J9_clusterclusterJ25_J26_J28_clusterJ4_J6_J7_clusterJ53_clusterJ48_clusterJ27_J29_J35_clusterclusterJ33_clusterJ30_clusterJ24_clusterJ23_clusterJ6_J8_clusterclusterJ32_J34_clusterJ68_J69_27_0" index="0" allow="bicycle" speed="13.89" length="25.33" width="1.50" shape="544.55,735.73 545.25,736.62 538.05,746.67 530.92,756.11"/>
    </edge>
    <edge id=":clusterclusterJ13_J15_J18_clusterJ75_J77_clusterJ62_clusterJ11_J13_clusterJ17_clusterJ14_clusterJ10_J12_J4_clusterJ37_clusterJ36_clusterJ3_J9_clusterclusterJ25_J26_J28_clusterJ4_J6_J7_clusterJ53_clusterJ48_clusterJ27_J29_J35_clusterclusterJ33_clusterJ30_clusterJ24_clusterJ23_clusterJ6_J8_clusterclusterJ32_J34_clusterJ68_J69_12" function="internal">
        <lane id=":clusterclusterJ13_J15_J18_clusterJ75_J77_clusterJ62_clusterJ11_J13_clusterJ17_clusterJ14_clusterJ10_J12_J4_clusterJ37_clusterJ36_clusterJ3_J9_clusterclusterJ25_J26_J28_clusterJ4_J6_J7_clusterJ53_clusterJ48_clusterJ27_J29_J35_clusterclusterJ33_clusterJ30_clusterJ24_clusterJ23_clusterJ6_J8_clusterclusterJ32_J34_clusterJ68_J69_12_0" index="0" disallow="bicycle" speed="8.83" length="5.00" width="5.00" shape="527.59,726.00 531.66,728.15 532.06,728.18"/>
    </edge>
    <edge id=":clusterclusterJ13_J15_J18_clusterJ75_J77_clusterJ62_clusterJ11_J13_clusterJ17_clusterJ14_clusterJ10_J12_J4_clusterJ37_clusterJ36_clusterJ3_J9_clusterclusterJ25_J26_J28_clusterJ4_J6_J7_clusterJ53_clusterJ48_clusterJ27_J29_J35_clusterclusterJ33_clusterJ30_clusterJ24_clusterJ23_clusterJ6_J8_clusterclusterJ32_J34_clusterJ68_J69_13" function="internal">
        <lane id=":clusterclusterJ13_J15_J18_clusterJ75_J77_clusterJ62_clusterJ11_J13_clusterJ17_clusterJ14_clusterJ10_J12_J4_clusterJ37_clusterJ36_clusterJ3_J9_clusterclusterJ25_J26_J28_clusterJ4_J6_J7_clusterJ53_clusterJ48_clusterJ27_J29_J35_clusterclusterJ33_clusterJ30_clusterJ24_clusterJ23_clusterJ6_J8_clusterclusterJ32_J34_clusterJ68_J69_13_0" index="0" disallow="bicycle" speed="13.89" length="25.19" shape="527.59,726.00 547.67,741.22"/>
    </edge>
    <edge id=":clusterclusterJ13_J15_J18_clusterJ75_J77_clusterJ62_clusterJ11_J13_clusterJ17_clusterJ14_clusterJ10_J12_J4_clusterJ37_clusterJ36_clusterJ3_J9_clusterclusterJ25_J26_J28_clusterJ4_J6_J7_clusterJ53_clusterJ48_clusterJ27_J29_J35_clusterclusterJ33_clusterJ30_clusterJ24_clusterJ23_clusterJ6_J8_clusterclusterJ32_J34_clusterJ68_J69_28" function="internal">
        <lane id=":clusterclusterJ13_J15_J18_clusterJ75_J77_clusterJ62_clusterJ11_J13_clusterJ17_clusterJ14_clusterJ10_J12_J4_clusterJ37_clusterJ36_clusterJ3_J9_clusterclusterJ25_J26_J28_clusterJ4_J6_J7_clusterJ53_clusterJ48_clusterJ27_J29_J35_clusterclusterJ33_clusterJ30_clusterJ24_clusterJ23_clusterJ6_J8_clusterclusterJ32_J34_clusterJ68_J69_28_0" index="0" disallow="bicycle" speed="8.83" length="12.07" width="5.00" shape="532.06,728.18 535.51,728.49 539.13,727.04 542.53,723.79"/>
    </edge>
    <edge id=":clusterclusterJ13_J15_J18_clusterJ75_J77_clusterJ62_clusterJ11_J13_clusterJ17_clusterJ14_clusterJ10_J12_J4_clusterJ37_clusterJ36_clusterJ3_J9_clusterclusterJ25_J26_J28_clusterJ4_J6_J7_clusterJ53_clusterJ48_clusterJ27_J29_J35_clusterclusterJ33_clusterJ30_clusterJ24_clusterJ23_clusterJ6_J8_clusterclusterJ32_J34_clusterJ68_J69_14" function="internal">
        <lane id=":clusterclusterJ13_J15_J18_clusterJ75_J77_clusterJ62_clusterJ11_J13_clusterJ17_clusterJ14_clusterJ10_J12_J4_clusterJ37_clusterJ36_clusterJ3_J9_clusterclusterJ25_J26_J28_clusterJ4_J6_J7_clusterJ53_clusterJ48_clusterJ27_J29_J35_clusterclusterJ33_clusterJ30_clusterJ24_clusterJ23_clusterJ6_J8_clusterclusterJ32_J34_clusterJ68_J69_14_0" index="0" disallow="bicycle" speed="13.89" length="25.09" shape="525.95,728.37 545.76,743.78"/>
    </edge>
    <edge id=":clusterclusterJ13_J15_J18_clusterJ75_J77_clusterJ62_clusterJ11_J13_clusterJ17_clusterJ14_clusterJ10_J12_J4_clusterJ37_clusterJ36_clusterJ3_J9_clusterclusterJ25_J26_J28_clusterJ4_J6_J7_clusterJ53_clusterJ48_clusterJ27_J29_J35_clusterclusterJ33_clusterJ30_clusterJ24_clusterJ23_clusterJ6_J8_clusterclusterJ32_J34_clusterJ68_J69_15" function="internal">
        <lane id=":clusterclusterJ13_J15_J18_clusterJ75_J77_clusterJ62_clusterJ11_J13_clusterJ17_clusterJ14_clusterJ10_J12_J4_clusterJ37_clusterJ36_clusterJ3_J9_clusterclusterJ25_J26_J28_clusterJ4_J6_J7_clusterJ53_clusterJ48_clusterJ27_J29_J35_clusterclusterJ33_clusterJ30_clusterJ24_clusterJ23_clusterJ6_J8_clusterclusterJ32_J34_clusterJ68_J69_15_0" index="0" disallow="bicycle" speed="11.98" length="9.46" shape="524.32,730.72 526.79,732.57 530.06,735.03 531.80,736.51"/>
    </edge>
    <edge id=":clusterclusterJ13_J15_J18_clusterJ75_J77_clusterJ62_clusterJ11_J13_clusterJ17_clusterJ14_clusterJ10_J12_J4_clusterJ37_clusterJ36_clusterJ3_J9_clusterclusterJ25_J26_J28_clusterJ4_J6_J7_clusterJ53_clusterJ48_clusterJ27_J29_J35_clusterclusterJ33_clusterJ30_clusterJ24_clusterJ23_clusterJ6_J8_clusterclusterJ32_J34_clusterJ68_J69_29" function="internal">
        <lane id=":clusterclusterJ13_J15_J18_clusterJ75_J77_clusterJ62_clusterJ11_J13_clusterJ17_clusterJ14_clusterJ10_J12_J4_clusterJ37_clusterJ36_clusterJ3_J9_clusterclusterJ25_J26_J28_clusterJ4_J6_J7_clusterJ53_clusterJ48_clusterJ27_J29_J35_clusterclusterJ33_clusterJ30_clusterJ24_clusterJ23_clusterJ6_J8_clusterclusterJ32_J34_clusterJ68_J69_29_0" index="0" disallow="bicycle" speed="11.98" length="20.27" shape="531.80,736.51 533.68,738.11 534.17,742.96 532.07,748.07 528.80,754.71"/>
    </edge>
    <edge id=":clusterclusterJ13_J15_J18_clusterJ75_J77_clusterJ62_clusterJ11_J13_clusterJ17_clusterJ14_clusterJ10_J12_J4_clusterJ37_clusterJ36_clusterJ3_J9_clusterclusterJ25_J26_J28_clusterJ4_J6_J7_clusterJ53_clusterJ48_clusterJ27_J29_J35_clusterclusterJ33_clusterJ30_clusterJ24_clusterJ23_clusterJ6_J8_clusterclusterJ32_J34_clusterJ68_J69_16" function="internal">
        <lane id=":clusterclusterJ13_J15_J18_clusterJ75_J77_clusterJ62_clusterJ11_J13_clusterJ17_clusterJ14_clusterJ10_J12_J4_clusterJ37_clusterJ36_clusterJ3_J9_clusterclusterJ25_J26_J28_clusterJ4_J6_J7_clusterJ53_clusterJ48_clusterJ27_J29_J35_clusterclusterJ33_clusterJ30_clusterJ24_clusterJ23_clusterJ6_J8_clusterclusterJ32_J34_clusterJ68_J69_16_0" index="0" allow="bicycle" speed="6.83" length="9.25" width="2.00" shape="518.93,748.26 519.99,745.70 520.17,743.47 519.47,741.57 517.89,740.01"/>
    </edge>
    <edge id=":clusterclusterJ13_J15_J18_clusterJ75_J77_clusterJ62_clusterJ11_J13_clusterJ17_clusterJ14_clusterJ10_J12_J4_clusterJ37_clusterJ36_clusterJ3_J9_clusterclusterJ25_J26_J28_clusterJ4_J6_J7_clusterJ53_clusterJ48_clusterJ27_J29_J35_clusterclusterJ33_clusterJ30_clusterJ24_clusterJ23_clusterJ6_J8_clusterclusterJ32_J34_clusterJ68_J69_17" function="internal">