<?xml version="1.0" encoding="UTF-8"?>

<!-- generated on 2025-02-27 16:41:45 by Eclipse SUMO netedit Version 1.11.0
-->

<routes xmlns:xsi="http://www.w3.org/2001/XMLSchema-instance" xsi:noNamespaceSchemaLocation="http://sumo.dlr.de/xsd/routes_file.xsd">

	<vType id="floating_car_observer" color="1,0,0"/>

    <trip id="vehicle_0" depart="0.00" from="265616293" to="36580426#1"/>
    <trip id="vehicle_1" depart="0.00" from="311644648#0" to="397534184#1"/>
</routes>