<?xml version="1.0" encoding="UTF-8"?>

<!-- generated on 2025-02-27 16:35:46.373000 by osmWebWizard.py v1_17_0+0000-737931d58da
<configuration>
    <allow-fringe.min-length value="1000.0"/>
    <fringe-factor value="5"/>
    <fringe-start-attributes value="departSpeed=&quot;max&quot;"/>
    <insertion-density value="12.0"/>
    <lanes value="True"/>
    <min-distance.fringe value="10.0"/>
    <min-distance value="300.0"/>
    <net-file value="C:\Users\ga76ney\Sumo\2025-02-27-16-35-35\osm.net.xml.gz"/>
    <remove-loops value="True"/>
    <route-file value="C:\Users\ga76ney\Sumo\2025-02-27-16-35-35\osm.passenger.rou.xml"/>
    <trip-attributes value="departLane=&quot;best&quot;"/>
    <output-trip-file value="C:\Users\ga76ney\Sumo\2025-02-27-16-35-35\osm.passenger.trips.xml"/>
    <prefix value="veh"/>
    <validate value="True"/>
    <vehicle-class value="passenger"/>
    <via-edge-types value="highway.motorway,highway.motorway_link,highway.trunk_link,highway.primary_link,highway.secondary_link,highway.tertiary_link"/>
</configuration>
-->

<!-- generated on 2025-02-27 16:35:46 by Eclipse SUMO duarouter Version 1.17.0
<configuration xmlns:xsi="http://www.w3.org/2001/XMLSchema-instance" xsi:noNamespaceSchemaLocation="http://sumo.dlr.de/xsd/duarouterConfiguration.xsd">

    <input>
        <net-file value="C:\Users\ga76ney\Sumo\2025-02-27-16-35-35\osm.net.xml.gz"/>
        <route-files value="C:\Users\ga76ney\Sumo\2025-02-27-16-35-35\osm.passenger.trips.xml"/>
    </input>

    <output>
        <output-file value="C:\Users\ga76ney\Sumo\2025-02-27-16-35-35\osm.passenger.trips.xml.tmp"/>
        <alternatives-output value="NUL"/>
        <write-trips value="true"/>
    </output>

    <processing>
        <remove-loops value="true"/>
    </processing>

    <time>
        <begin value="0.0"/>
        <end value="3600.0"/>
    </time>

    <report>
        <no-warnings value="true"/>
        <ignore-errors value="true"/>
        <no-step-log value="true"/>
    </report>

</configuration>
-->

<routes xmlns:xsi="http://www.w3.org/2001/XMLSchema-instance" xsi:noNamespaceSchemaLocation="http://sumo.dlr.de/xsd/routes_file.xsd">
    <vType id="veh_passenger" vClass="passenger"/>
    <trip id="veh6" type="veh_passenger" depart="211.96" departLane="best" departSpeed="max" from="32457956" to="172407662"/>
    <trip id="veh7" type="veh_passenger" depart="247.29" departLane="best" departSpeed="max" from="311644249#0" to="-376827516"/>
    <trip id="veh8" type="veh_passenger" depart="282.62" departLane="best" departSpeed="max" from="32960032" to="315225707#1"/>
    <trip id="veh9" type="veh_passenger" depart="317.94" departLane="best" from="-1099442600#1" to="36580427#2"/>
    <trip id="veh11" type="veh_passenger" depart="388.60" departLane="best" departSpeed="max" from="153625856" to="397534184#2"/>
    <trip id="veh17" type="veh_passenger" depart="600.56" departLane="best" departSpeed="max" from="311644249#0" to="-376827516"/>
    <trip id="veh18" type="veh_passenger" depart="635.89" departLane="best" departSpeed="max" from="447913966" to="397534184#1"/>
    <trip id="veh19" type="veh_passenger" depart="671.21" departLane="best" departSpeed="max" from="292788387" to="315225707#1"/>
    <trip id="veh20" type="veh_passenger" depart="706.54" departLane="best" departSpeed="max" from="36580431" to="292788384"/>
    <trip id="veh21" type="veh_passenger" depart="741.87" departLane="best" departSpeed="max" from="36580431" to="292788384"/>
    <trip id="veh23" type="veh_passenger" depart="812.52" departLane="best" departSpeed="max" from="292788387" to="-1099442600#2"/>
    <trip id="veh31" type="veh_passenger" depart="1095.14" departLane="best" departSpeed="max" from="311644249#0" to="-376827515"/>
    <trip id="veh32" type="veh_passenger" depart="1130.46" departLane="best" from="22374957#1" to="-32960032"/>
    <trip id="veh35" type="veh_passenger" depart="1236.44" departLane="best" departSpeed="max" from="153625856" to="36580427#2"/>
    <trip id="veh37" type="veh_passenger" depart="1307.10" departLane="best" departSpeed="max" from="32960032" to="1099442600#3"/>
    <trip id="veh38" type="veh_passenger" depart="1342.43" departLane="best" departSpeed="max" from="447913966" to="397534184#2"/>
    <trip id="veh42" type="veh_passenger" depart="1483.73" departLane="best" departSpeed="max" from="32960032" to="397534184#2"/>
    <trip id="veh44" type="veh_passenger" depart="1554.39" departLane="best" from="36580429#1" to="-376827516"/>
    <trip id="veh48" type="veh_passenger" depart="1695.70" departLane="best" departSpeed="max" from="311644249#0" to="315225707#1"/>
    <trip id="veh50" type="veh_passenger" depart="1766.35" departLane="best" departSpeed="max" from="447913966" to="-32960032"/>
    <trip id="veh51" type="veh_passenger" depart="1801.68" departLane="best" departSpeed="max" from="4591434" to="-376827516"/>
    <trip id="veh55" type="veh_passenger" depart="1942.98" departLane="best" departSpeed="max" from="311644249#0" to="-153625856"/>
    <trip id="veh57" type="veh_passenger" depart="2013.64" departLane="best" departSpeed="max" from="447913966" to="36580422#0"/>
    <trip id="veh58" type="veh_passenger" depart="2048.97" departLane="best" departSpeed="max" from="32960032" to="265616622#0"/>
    <trip id="veh59" type="veh_passenger" depart="2084.29" departLane="best" departSpeed="max" from="32457956" to="172407662"/>
    <trip id="veh60" type="veh_passenger" depart="2119.62" departLane="best" departSpeed="max" from="32960032" to="-5251344#2"/>
    <trip id="veh63" type="veh_passenger" depart="2225.60" departLane="best" departSpeed="max" from="311644249#0" to="315225707#1"/>
    <trip id="veh64" type="veh_passenger" depart="2260.93" departLane="best" departSpeed="max" from="153625856" to="36580427#2"/>
    <trip id="veh66" type="veh_passenger" depart="2331.58" departLane="best" departSpeed="max" from="32960032" to="-5251344#1"/>
    <trip id="veh69" type="veh_passenger" depart="2437.56" departLane="best" departSpeed="max" from="447913966" to="36580427#2"/>
    <trip id="veh70" type="veh_passenger" depart="2472.89" departLane="best" departSpeed="max" from="36580431" to="292788384"/>
    <trip id="veh73" type="veh_passenger" depart="2578.87" departLane="best" from="311644249#1" to="-32960032"/>
    <trip id="veh74" type="veh_passenger" depart="2614.20" departLane="best" from="22374957#1" to="36580427#2"/>
    <trip id="veh76" type="veh_passenger" depart="2684.85" departLane="best" departSpeed="max" from="311644249#0" to="-376827516"/>
    <trip id="veh78" type="veh_passenger" depart="2755.51" departLane="best" departSpeed="max" from="311644249#0" to="36580427#2"/>
    <trip id="veh79" type="veh_passenger" depart="2790.83" departLane="best" from="311644249#1" to="315225707#1"/>
    <trip id="veh80" type="veh_passenger" depart="2826.16" departLane="best" departSpeed="max" from="311644249#0" to="-376827514"/>
    <trip id="veh81" type="veh_passenger" depart="2861.49" departLane="best" departSpeed="max" from="311644249#0" to="-32960032"/>
    <trip id="veh84" type="veh_passenger" depart="2967.47" departLane="best" departSpeed="max" from="32960032" to="36580422#0"/>
    <trip id="veh85" type="veh_passenger" depart="3002.79" departLane="best" departSpeed="max" from="32960032" to="36580427#2"/>
    <trip id="veh86" type="veh_passenger" depart="3038.12" departLane="best" departSpeed="max" from="4591434" to="-376827516"/>
    <trip id="veh93" type="veh_passenger" depart="3285.41" departLane="best" departSpeed="max" from="311644249#0" to="36580427#2"/>
    <trip id="veh96" type="veh_passenger" depart="3391.39" departLane="best" departSpeed="max" from="311644249#0" to="315225707#1"/>
    <trip id="veh97" type="veh_passenger" depart="3426.72" departLane="best" departSpeed="max" from="311644249#0" to="36580427#2"/>
</routes>
