<?xml version="1.0" encoding="UTF-8"?>

<!-- generated on 2025-02-02 22:05:21 by Eclipse SUMO netedit Version 1.11.0
<configuration xmlns:xsi="http://www.w3.org/2001/XMLSchema-instance" xsi:noNamespaceSchemaLocation="http://sumo.dlr.de/xsd/netconvertConfiguration.xsd">

    <input>
        <sumo-net-file value="network_small_signalized_50.net.xml"/>
    </input>

    <output>
        <output-file value="C:\FTO-Sim\Additionals\OJ_T-ITS\network\network_small_signalized_30.net.xml"/>
    </output>

    <processing>
        <geometry.min-radius.fix.railways value="false"/>
        <geometry.max-grade.fix value="false"/>
        <offset.disable-normalization value="true"/>
        <lefthand value="false"/>
    </processing>

    <junctions>
        <no-turnarounds value="true"/>
        <junctions.corner-detail value="5"/>
        <junctions.limit-turn-speed value="5.5"/>
        <rectangular-lane-cut value="false"/>
    </junctions>

    <pedestrian>
        <walkingareas value="false"/>
    </pedestrian>

    <report>
        <aggregate-warnings value="5"/>
    </report>

</configuration>
-->

<net version="1.9" junctionCornerDetail="5" limitTurnSpeed="5.50" xmlns:xsi="http://www.w3.org/2001/XMLSchema-instance" xsi:noNamespaceSchemaLocation="http://sumo.dlr.de/xsd/net_file.xsd">

    <location netOffset="-691674.80,-5335504.47" convBoundary="29.07,30.88,294.49,271.88" origBoundary="11.576875,48.143805,11.586043,48.160610" projParameter="+proj=utm +zone=32 +ellps=WGS84 +datum=WGS84 +units=m +no_defs"/>

    <type id="highway.bridleway" priority="1" numLanes="1" speed="2.78" allow="pedestrian" oneway="1" width="2.00"/>
    <type id="highway.bus_guideway" priority="1" numLanes="1" speed="27.78" allow="bus" oneway="1"/>
    <type id="highway.cycleway" priority="1" numLanes="1" speed="5.56" allow="bicycle" oneway="0" width="1.00"/>
    <type id="highway.footway" priority="1" numLanes="1" speed="2.78" allow="pedestrian" oneway="1" width="2.00"/>
    <type id="highway.ford" priority="1" numLanes="1" speed="2.78" allow="army" oneway="0"/>
    <type id="highway.living_street" priority="2" numLanes="1" speed="2.78" disallow="tram rail_urban rail rail_electric rail_fast ship" oneway="0"/>
    <type id="highway.motorway" priority="14" numLanes="2" speed="39.44" allow="private emergency authority army vip passenger hov taxi bus coach delivery truck trailer motorcycle evehicle custom1 custom2" oneway="1"/>
    <type id="highway.motorway_link" priority="9" numLanes="1" speed="22.22" allow="private emergency authority army vip passenger hov taxi bus coach delivery truck trailer motorcycle evehicle custom1 custom2" oneway="1"/>
    <type id="highway.path" priority="1" numLanes="1" speed="5.56" allow="pedestrian bicycle" oneway="0" width="2.00"/>
    <type id="highway.pedestrian" priority="1" numLanes="1" speed="2.78" allow="pedestrian" oneway="1" width="2.00"/>
    <type id="highway.primary" priority="12" numLanes="2" speed="27.78" disallow="tram rail_urban rail rail_electric rail_fast ship" oneway="0"/>
    <type id="highway.primary_link" priority="7" numLanes="1" speed="22.22" disallow="tram rail_urban rail rail_electric rail_fast ship" oneway="0"/>
    <type id="highway.raceway" priority="15" numLanes="2" speed="83.33" allow="vip" oneway="0"/>
    <type id="highway.residential" priority="3" numLanes="1" speed="13.89" disallow="tram rail_urban rail rail_electric rail_fast ship" oneway="0"/>
    <type id="highway.secondary" priority="11" numLanes="1" speed="27.78" disallow="tram rail_urban rail rail_electric rail_fast ship" oneway="0"/>
    <type id="highway.secondary_link" priority="6" numLanes="1" speed="22.22" disallow="tram rail_urban rail rail_electric rail_fast ship" oneway="0"/>
    <type id="highway.service" priority="1" numLanes="1" speed="5.56" allow="pedestrian delivery bicycle" oneway="0"/>
    <type id="highway.stairs" priority="1" numLanes="1" speed="1.39" allow="pedestrian" oneway="1" width="2.00"/>
    <type id="highway.step" priority="1" numLanes="1" speed="1.39" allow="pedestrian" oneway="1" width="2.00"/>
    <type id="highway.steps" priority="1" numLanes="1" speed="1.39" allow="pedestrian" oneway="1" width="2.00"/>
    <type id="highway.tertiary" priority="10" numLanes="1" speed="22.22" disallow="tram rail_urban rail rail_electric rail_fast ship" oneway="0"/>
    <type id="highway.tertiary_link" priority="5" numLanes="1" speed="22.22" disallow="tram rail_urban rail rail_electric rail_fast ship" oneway="0"/>
    <type id="highway.track" priority="1" numLanes="1" speed="5.56" allow="pedestrian motorcycle moped bicycle" oneway="0"/>
    <type id="highway.trunk" priority="13" numLanes="2" speed="27.78" disallow="pedestrian bicycle tram rail_urban rail rail_electric rail_fast ship" oneway="0"/>
    <type id="highway.trunk_link" priority="8" numLanes="1" speed="22.22" disallow="pedestrian bicycle tram rail_urban rail rail_electric rail_fast ship" oneway="0"/>
    <type id="highway.unclassified" priority="4" numLanes="1" speed="13.89" disallow="tram rail_urban rail rail_electric rail_fast ship" oneway="0"/>
    <type id="highway.unsurfaced" priority="1" numLanes="1" speed="8.33" disallow="tram rail_urban rail rail_electric rail_fast ship" oneway="0"/>
    <type id="railway.highspeed" priority="21" numLanes="1" speed="69.44" allow="rail_fast" oneway="1"/>
    <type id="railway.light_rail" priority="19" numLanes="1" speed="27.78" allow="rail_urban" oneway="1"/>
    <type id="railway.preserved" priority="16" numLanes="1" speed="27.78" allow="rail" oneway="1"/>
    <type id="railway.rail" priority="20" numLanes="1" speed="44.44" allow="rail" oneway="1"/>
    <type id="railway.subway" priority="18" numLanes="1" speed="27.78" allow="rail_urban" oneway="1"/>
    <type id="railway.tram" priority="17" numLanes="1" speed="13.89" allow="tram" oneway="1"/>

    <edge id=":cluster_J13_J14_J17_J18_cluster_29564155_3953206284_3953206285_3953206286_#4more_0" function="internal">
        <lane id=":cluster_J13_J14_J17_J18_cluster_29564155_3953206284_3953206285_3953206286_#4more_0_0" index="0" allow="bicycle" speed="5.55" length="7.21" width="1.00" shape="142.81,179.35 142.08,177.50 140.94,176.35 139.38,175.91 137.41,176.17"/>
    </edge>
    <edge id=":cluster_J13_J14_J17_J18_cluster_29564155_3953206284_3953206285_3953206286_#4more_1" function="internal">
        <lane id=":cluster_J13_J14_J17_J18_cluster_29564155_3953206284_3953206285_3953206286_#4more_1_0" index="0" allow="bicycle" speed="5.56" length="23.89" width="1.00" shape="142.81,179.35 137.03,156.17"/>
    </edge>
    <edge id=":cluster_J13_J14_J17_J18_cluster_29564155_3953206284_3953206285_3953206286_#4more_2" function="internal">
        <lane id=":cluster_J13_J14_J17_J18_cluster_29564155_3953206284_3953206285_3953206286_#4more_2_0" index="0" speed="8.33" length="16.91" shape="148.61,177.96 146.89,173.67 144.19,171.02 140.52,170.00 135.86,170.63"/>
    </edge>
    <edge id=":cluster_J13_J14_J17_J18_cluster_29564155_3953206284_3953206285_3953206286_#4more_3" function="internal">
        <lane id=":cluster_J13_J14_J17_J18_cluster_29564155_3953206284_3953206285_3953206286_#4more_3_0" index="0" speed="8.33" length="23.96" shape="148.61,177.96 142.86,154.69"/>
    </edge>
    <edge id=":cluster_J13_J14_J17_J18_cluster_29564155_3953206284_3953206285_3953206286_#4more_4" function="internal">
        <lane id=":cluster_J13_J14_J17_J18_cluster_29564155_3953206284_3953206285_3953206286_#4more_4_0" index="0" speed="8.33" length="7.49" shape="148.61,177.96 148.02,171.90 148.43,170.56"/>
    </edge>
    <edge id=":cluster_J13_J14_J17_J18_cluster_29564155_3953206284_3953206285_3953206286_#4more_20" function="internal">
        <lane id=":cluster_J13_J14_J17_J18_cluster_29564155_3953206284_3953206285_3953206286_#4more_20_0" index="0" speed="8.33" length="14.66" shape="148.43,170.56 149.48,167.08 152.99,163.52 158.55,161.19"/>
    </edge>
    <edge id=":cluster_J13_J14_J17_J18_cluster_29564155_3953206284_3953206285_3953206286_#4more_5" function="internal">
        <lane id=":cluster_J13_J14_J17_J18_cluster_29564155_3953206284_3953206285_3953206286_#4more_5_0" index="0" allow="bicycle" speed="5.56" length="7.56" width="1.00" shape="160.85,170.02 158.99,170.81 157.83,172.04 157.35,173.71 157.56,175.82"/>
    </edge>
    <edge id=":cluster_J13_J14_J17_J18_cluster_29564155_3953206284_3953206285_3953206286_#4more_6" function="internal">
        <lane id=":cluster_J13_J14_J17_J18_cluster_29564155_3953206284_3953206285_3953206286_#4more_6_0" index="0" allow="bicycle" speed="5.56" length="24.23" width="1.00" shape="160.85,170.02 137.41,176.17"/>
    </edge>
    <edge id=":cluster_J13_J14_J17_J18_cluster_29564155_3953206284_3953206285_3953206286_#4more_7" function="internal">
        <lane id=":cluster_J13_J14_J17_J18_cluster_29564155_3953206284_3953206285_3953206286_#4more_7_0" index="0" speed="8.33" length="17.06" shape="159.36,164.29 155.08,166.08 152.39,168.83 151.27,172.54 151.72,177.21"/>
    </edge>
    <edge id=":cluster_J13_J14_J17_J18_cluster_29564155_3953206284_3953206285_3953206286_#4more_8" function="internal">
        <lane id=":cluster_J13_J14_J17_J18_cluster_29564155_3953206284_3953206285_3953206286_#4more_8_0" index="0" speed="8.33" length="24.33" shape="159.36,164.29 135.86,170.63"/>
    </edge>
    <edge id=":cluster_J13_J14_J17_J18_cluster_29564155_3953206284_3953206285_3953206286_#4more_9" function="internal">
        <lane id=":cluster_J13_J14_J17_J18_cluster_29564155_3953206284_3953206285_3953206286_#4more_9_0" index="0" speed="8.33" length="7.37" shape="159.36,164.29 153.37,164.97 152.08,164.59"/>
    </edge>
    <edge id=":cluster_J13_J14_J17_J18_cluster_29564155_3953206284_3953206285_3953206286_#4more_21" function="internal">
        <lane id=":cluster_J13_J14_J17_J18_cluster_29564155_3953206284_3953206285_3953206286_#4more_21_0" index="0" speed="8.33" length="14.42" shape="152.08,164.59 148.63,163.60 145.13,160.17 142.86,154.69"/>
    </edge>
    <edge id=":cluster_J13_J14_J17_J18_cluster_29564155_3953206284_3953206285_3953206286_#4more_10" function="internal">
        <lane id=":cluster_J13_J14_J17_J18_cluster_29564155_3953206284_3953206285_3953206286_#4more_10_0" index="0" allow="bicycle" speed="5.56" length="7.30" width="1.00" shape="151.66,152.47 152.42,154.34 153.59,155.51 155.16,155.98 157.14,155.77"/>
    </edge>
    <edge id=":cluster_J13_J14_J17_J18_cluster_29564155_3953206284_3953206285_3953206286_#4more_11" function="internal">
        <lane id=":cluster_J13_J14_J17_J18_cluster_29564155_3953206284_3953206285_3953206286_#4more_11_0" index="0" allow="bicycle" speed="5.56" length="24.08" width="1.00" shape="151.66,152.47 157.56,175.82"/>
    </edge>
    <edge id=":cluster_J13_J14_J17_J18_cluster_29564155_3953206284_3953206285_3953206286_#4more_12" function="internal">
        <lane id=":cluster_J13_J14_J17_J18_cluster_29564155_3953206284_3953206285_3953206286_#4more_12_0" index="0" speed="8.33" length="16.60" shape="145.96,153.91 147.69,158.07 150.36,160.67 153.98,161.71 158.55,161.19"/>
    </edge>
    <edge id=":cluster_J13_J14_J17_J18_cluster_29564155_3953206284_3953206285_3953206286_#4more_13" function="internal">
        <lane id=":cluster_J13_J14_J17_J18_cluster_29564155_3953206284_3953206285_3953206286_#4more_13_0" index="0" speed="8.33" length="24.01" shape="145.96,153.91 151.72,177.21"/>
    </edge>
    <edge id=":cluster_J13_J14_J17_J18_cluster_29564155_3953206284_3953206285_3953206286_#4more_14" function="internal">
        <lane id=":cluster_J13_J14_J17_J18_cluster_29564155_3953206284_3953206285_3953206286_#4more_14_0" index="0" speed="8.33" length="7.41" shape="145.96,153.91 146.56,159.81 146.12,161.22"/>
    </edge>
    <edge id=":cluster_J13_J14_J17_J18_cluster_29564155_3953206284_3953206285_3953206286_#4more_22" function="internal">
        <lane id=":cluster_J13_J14_J17_J18_cluster_29564155_3953206284_3953206285_3953206286_#4more_22_0" index="0" speed="8.33" length="14.74" shape="146.12,161.22 145.08,164.57 141.51,168.17 135.86,170.63"/>
    </edge>
    <edge id=":cluster_J13_J14_J17_J18_cluster_29564155_3953206284_3953206285_3953206286_#4more_15" function="internal">
        <lane id=":cluster_J13_J14_J17_J18_cluster_29564155_3953206284_3953206285_3953206286_#4more_15_0" index="0" allow="bicycle" speed="5.56" length="7.63" width="1.00" shape="133.41,161.85 135.40,160.99 136.67,159.76 137.21,158.16 137.03,156.17"/>
    </edge>
    <edge id=":cluster_J13_J14_J17_J18_cluster_29564155_3953206284_3953206285_3953206286_#4more_16" function="internal">
        <lane id=":cluster_J13_J14_J17_J18_cluster_29564155_3953206284_3953206285_3953206286_#4more_16_0" index="0" allow="bicycle" speed="5.56" length="24.50" width="1.00" shape="133.41,161.85 157.14,155.77"/>
    </edge>
    <edge id=":cluster_J13_J14_J17_J18_cluster_29564155_3953206284_3953206285_3953206286_#4more_17" function="internal">
        <lane id=":cluster_J13_J14_J17_J18_cluster_29564155_3953206284_3953206285_3953206286_#4more_17_0" index="0" speed="8.33" length="17.08" shape="135.00,167.55 139.38,165.65 142.15,162.88 143.31,159.22 142.86,154.69"/>
    </edge>
    <edge id=":cluster_J13_J14_J17_J18_cluster_29564155_3953206284_3953206285_3953206286_#4more_18" function="internal">
        <lane id=":cluster_J13_J14_J17_J18_cluster_29564155_3953206284_3953206285_3953206286_#4more_18_0" index="0" speed="8.33" length="24.39" shape="135.00,167.55 158.55,161.19"/>
    </edge>
    <edge id=":cluster_J13_J14_J17_J18_cluster_29564155_3953206284_3953206285_3953206286_#4more_19" function="internal">
        <lane id=":cluster_J13_J14_J17_J18_cluster_29564155_3953206284_3953206285_3953206286_#4more_19_0" index="0" speed="8.33" length="7.72" shape="135.00,167.55 141.10,166.73 142.61,167.15"/>
    </edge>
    <edge id=":cluster_J13_J14_J17_J18_cluster_29564155_3953206284_3953206285_3953206286_#4more_23" function="internal">
        <lane id=":cluster_J13_J14_J17_J18_cluster_29564155_3953206284_3953206285_3953206286_#4more_23_0" index="0" speed="8.33" length="14.50" shape="142.61,167.15 145.92,168.07 149.46,171.56 151.72,177.21"/>
    </edge>

    <edge id="-E0" from="cluster_J13_J14_J17_J18_cluster_29564155_3953206284_3953206285_3953206286_#4more" to="J0" priority="-1" shape="147.31,165.75 113.74,33.15">
        <lane id="-E0_0" index="0" speed="8.33" length="124.97" shape="142.86,154.69 112.19,33.54"/>
    </edge>
    <edge id="-E1" from="cluster_J13_J14_J17_J18_cluster_29564155_3953206284_3953206285_3953206286_#4more" to="J2" priority="-1" shape="147.31,165.75 292.77,128.13">
        <lane id="-E1_0" index="0" speed="8.33" length="138.22" shape="158.55,161.19 292.37,126.58"/>
    </edge>
    <edge id="-E2" from="cluster_J13_J14_J17_J18_cluster_29564155_3953206284_3953206285_3953206286_#4more" to="J4" priority="-1" shape="147.31,165.75 31.39,198.31">
        <lane id="-E2_0" index="0" speed="8.33" length="108.07" shape="135.86,170.63 31.82,199.85"/>
    </edge>
    <edge id="-E3" from="cluster_J13_J14_J17_J18_cluster_29564155_3953206284_3953206285_3953206286_#4more" to="J3" priority="-1" shape="147.31,165.75 172.56,270.31">
        <lane id="-E3_0" index="0" speed="8.33" length="95.39" shape="151.72,177.21 174.12,269.93"/>
    </edge>
    <edge id="E0" from="J0" to="cluster_J13_J14_J17_J18_cluster_29564155_3953206284_3953206285_3953206286_#4more" priority="-1" shape="113.74,33.15 147.31,165.75">
        <lane id="E0_0" index="0" speed="8.33" length="124.97" shape="115.29,32.76 145.96,153.91"/>
    </edge>
    <edge id="E1" from="J2" to="cluster_J13_J14_J17_J18_cluster_29564155_3953206284_3953206285_3953206286_#4more" priority="-1" shape="292.77,128.13 147.31,165.75">
        <lane id="E1_0" index="0" speed="8.33" length="138.22" shape="293.17,129.68 159.36,164.29"/>
    </edge>
    <edge id="E16" from="J26" to="cluster_J13_J14_J17_J18_cluster_29564155_3953206284_3953206285_3953206286_#4more" priority="1" type="highway.cycleway" shape="294.49,134.76 155.85,170.80">
        <lane id="E16_0" index="0" allow="bicycle" speed="5.56" length="138.21" width="1.00" shape="294.62,135.24 160.85,170.02"/>
    </edge>
    <edge id="E18" from="cluster_J13_J14_J17_J18_cluster_29564155_3953206284_3953206285_3953206286_#4more" to="J27" priority="1" type="highway.cycleway" shape="142.13,174.33 33.31,204.75">
        <lane id="E18_0" index="0" allow="bicycle" speed="5.56" length="107.95" width="1.00" shape="137.41,176.17 33.44,205.23"/>
    </edge>
    <edge id="E19" from="J28" to="cluster_J13_J14_J17_J18_cluster_29564155_3953206284_3953206285_3953206286_#4more" priority="1" type="highway.cycleway" shape="29.07,191.67 138.73,160.87">
        <lane id="E19_0" index="0" allow="bicycle" speed="5.56" length="108.52" width="1.00" shape="28.93,191.19 133.41,161.85"/>
    </edge>
    <edge id="E2" from="J4" to="cluster_J13_J14_J17_J18_cluster_29564155_3953206284_3953206285_3953206286_#4more" priority="-1" shape="31.39,198.31 147.31,165.75">
        <lane id="E2_0" index="0" speed="8.33" length="108.07" shape="30.96,196.77 135.00,167.55"/>
    </edge>
    <edge id="E21" from="cluster_J13_J14_J17_J18_cluster_29564155_3953206284_3953206285_3953206286_#4more" to="J29" priority="1" type="highway.cycleway" shape="152.42,157.51 291.28,121.38">
        <lane id="E21_0" index="0" allow="bicycle" speed="5.56" length="138.48" width="1.00" shape="157.14,155.77 291.15,120.90"/>
    </edge>
    <edge id="E22" from="J18" to="cluster_J13_J14_J17_J18_cluster_29564155_3953206284_3953206285_3953206286_#4more" priority="1" type="highway.cycleway" shape="120.27,30.88 152.42,157.51">
        <lane id="E22_0" index="0" allow="bicycle" speed="5.56" length="125.57" width="1.00" shape="120.75,30.76 151.66,152.47"/>
    </edge>
    <edge id="E24" from="cluster_J13_J14_J17_J18_cluster_29564155_3953206284_3953206285_3953206286_#4more" to="J21" priority="1" type="highway.cycleway" shape="155.85,170.80 179.26,268.60">
        <lane id="E24_0" index="0" allow="bicycle" speed="5.56" length="95.29" width="1.00" shape="157.56,175.82 179.75,268.48"/>
    </edge>
    <edge id="E25" from="J22" to="cluster_J13_J14_J17_J18_cluster_29564155_3953206284_3953206285_3953206286_#4more" priority="1" type="highway.cycleway" shape="165.40,271.88 142.13,174.33">
        <lane id="E25_0" index="0" allow="bicycle" speed="5.56" length="95.25" width="1.00" shape="164.91,272.00 142.81,179.35"/>
    </edge>
    <edge id="E27" from="cluster_J13_J14_J17_J18_cluster_29564155_3953206284_3953206285_3953206286_#4more" to="J25" priority="1" type="highway.cycleway" shape="138.73,160.87 106.89,34.97">
        <lane id="E27_0" index="0" allow="bicycle" speed="5.56" length="124.89" width="1.00" shape="137.03,156.17 106.41,35.09"/>
    </edge>
    <edge id="E3" from="J3" to="cluster_J13_J14_J17_J18_cluster_29564155_3953206284_3953206285_3953206286_#4more" priority="-1" shape="172.56,270.31 147.31,165.75">
        <lane id="E3_0" index="0" speed="8.33" length="95.39" shape="171.00,270.69 148.61,177.96"/>
    </edge>

    <tlLogic id="J0" type="static" programID="0" offset="0">
        <phase duration="42" state="grrrrgGgGggrrrrgGgGg"/>
        <phase duration="3"  state="GrrrrGryyyGrrrrGryyy"/>
        <phase duration="42" state="gGgGggrrrrgGgGggrrrr"/>
        <phase duration="3"  state="GryyyGrrrrGryyyGrrrr"/>
    </tlLogic>

    <junction id="J0" type="dead_end" x="113.74" y="33.15" incLanes="-E0_0" intLanes="" shape="113.74,33.15 110.64,33.94 113.74,33.15"/>
    <junction id="J18" type="dead_end" x="120.27" y="30.88" incLanes="" intLanes="" shape="120.27,30.88 121.24,30.63"/>
    <junction id="J2" type="dead_end" x="292.77" y="128.13" incLanes="-E1_0" intLanes="" shape="292.77,128.13 291.97,125.03 292.77,128.13"/>
    <junction id="J21" type="dead_end" x="179.26" y="268.60" incLanes="E24_0" intLanes="" shape="180.23,268.37 179.26,268.60"/>
    <junction id="J22" type="dead_end" x="165.40" y="271.88" incLanes="" intLanes="" shape="165.40,271.88 164.43,272.11"/>
    <junction id="J25" type="dead_end" x="106.89" y="34.97" incLanes="E27_0" intLanes="" shape="105.92,35.22 106.89,34.97"/>
    <junction id="J26" type="dead_end" x="294.49" y="134.76" incLanes="" intLanes="" shape="294.49,134.76 294.74,135.73"/>
    <junction id="J27" type="dead_end" x="33.31" y="204.75" incLanes="E18_0" intLanes="" shape="33.58,205.71 33.31,204.75"/>
    <junction id="J28" type="dead_end" x="29.07" y="191.67" incLanes="" intLanes="" shape="29.07,191.67 28.80,190.71"/>
    <junction id="J29" type="dead_end" x="291.28" y="121.38" incLanes="E21_0" intLanes="" shape="291.03,120.41 291.28,121.38"/>
    <junction id="J3" type="dead_end" x="172.56" y="270.31" incLanes="-E3_0" intLanes="" shape="172.56,270.31 175.67,269.56 172.56,270.31"/>
    <junction id="J4" type="dead_end" x="31.39" y="198.31" incLanes="-E2_0" intLanes="" shape="31.39,198.31 32.26,201.39 31.39,198.31"/>
    <junction id="cluster_J13_J14_J17_J18_cluster_29564155_3953206284_3953206285_3953206286_#4more" type="traffic_light" x="147.29" y="165.85" incLanes="E25_0 E3_0 E16_0 E1_0 E22_0 E0_0 E19_0 E2_0" intLanes=":cluster_J13_J14_J17_J18_cluster_29564155_3953206284_3953206285_3953206286_#4more_0_0 :cluster_J13_J14_J17_J18_cluster_29564155_3953206284_3953206285_3953206286_#4more_1_0 :cluster_J13_J14_J17_J18_cluster_29564155_3953206284_3953206285_3953206286_#4more_2_0 :cluster_J13_J14_J17_J18_cluster_29564155_3953206284_3953206285_3953206286_#4more_3_0 :cluster_J13_J14_J17_J18_cluster_29564155_3953206284_3953206285_3953206286_#4more_20_0 :cluster_J13_J14_J17_J18_cluster_29564155_3953206284_3953206285_3953206286_#4more_5_0 :cluster_J13_J14_J17_J18_cluster_29564155_3953206284_3953206285_3953206286_#4more_6_0 :cluster_J13_J14_J17_J18_cluster_29564155_3953206284_3953206285_3953206286_#4more_7_0 :cluster_J13_J14_J17_J18_cluster_29564155_3953206284_3953206285_3953206286_#4more_8_0 :cluster_J13_J14_J17_J18_cluster_29564155_3953206284_3953206285_3953206286_#4more_21_0 :cluster_J13_J14_J17_J18_cluster_29564155_3953206284_3953206285_3953206286_#4more_10_0 :cluster_J13_J14_J17_J18_cluster_29564155_3953206284_3953206285_3953206286_#4more_11_0 :cluster_J13_J14_J17_J18_cluster_29564155_3953206284_3953206285_3953206286_#4more_12_0 :cluster_J13_J14_J17_J18_cluster_29564155_3953206284_3953206285_3953206286_#4more_13_0 :cluster_J13_J14_J17_J18_cluster_29564155_3953206284_3953206285_3953206286_#4more_22_0 :cluster_J13_J14_J17_J18_cluster_29564155_3953206284_3953206285_3953206286_#4more_15_0 :cluster_J13_J14_J17_J18_cluster_29564155_3953206284_3953206285_3953206286_#4more_16_0 :cluster_J13_J14_J17_J18_cluster_29564155_3953206284_3953206285_3953206286_#4more_17_0 :cluster_J13_J14_J17_J18_cluster_29564155_3953206284_3953206285_3953206286_#4more_18_0 :cluster_J13_J14_J17_J18_cluster_29564155_3953206284_3953206285_3953206286_#4more_23_0" shape="142.33,179.46 158.05,175.70 157.93,173.26 158.28,172.31 158.91,171.53 159.80,170.93 160.97,170.50 157.01,155.28 154.75,155.40 153.86,155.05 153.13,154.43 152.55,153.52 152.14,152.35 136.54,156.29 136.61,158.58 136.21,159.50 135.52,160.27 134.54,160.89 133.27,161.36 137.55,176.65 139.79,176.48 140.67,176.81 141.38,177.42 141.94,178.30">
        <request index="0"  response="00000000000000000000" foes="00000000000001000000" cont="0"/>
        <request index="1"  response="10000000000000000000" foes="11111100000101000100" cont="0"/>
        <request index="2"  response="00000000000101000010" foes="00000100000101000010" cont="0"/>
        <request index="3"  response="11010000001000000000" foes="11110100001101000000" cont="0"/>
        <request index="4"  response="11000011101101000000" foes="11000011101101000000" cont="1"/>
        <request index="5"  response="00000000100000000000" foes="00000000100000000000" cont="0"/>
        <request index="6"  response="00000000100000011011" foes="10000010100010011111" cont="0"/>
        <request index="7"  response="00000010100001000000" foes="10000010100001000000" cont="0"/>
        <request index="8"  response="00000100100000011010" foes="10000110100000011110" cont="0"/>
        <request index="9"  response="01110110100000011000" foes="01110110100000011000" cont="1"/>
        <request index="10" response="00000000000000000000" foes="00010000000000000000" cont="0"/>
        <request index="11" response="00000000001000000000" foes="01010001001111110000" cont="0"/>
        <request index="12" response="01010000100000000000" foes="01010000100000010000" cont="0"/>
        <request index="13" response="10000000001101000000" foes="11010000001111010000" cont="0"/>
        <request index="14" response="11010000001100001110" foes="11010000001100001110" cont="1"/>
        <request index="15" response="00000000000000000010" foes="00000000000000000010" cont="0"/>
        <request index="16" response="00000110110000000010" foes="00100111111000001010" cont="0"/>
        <request index="17" response="00010000000000001010" foes="00010000001000001010" cont="0"/>
        <request index="18" response="00000110100000010010" foes="00000111101000011010" cont="0"/>
        <request index="19" response="00000110000111011010" foes="00000110000111011010" cont="1"/>
    </junction>

    <junction id=":cluster_J13_J14_J17_J18_cluster_29564155_3953206284_3953206285_3953206286_#4more_20_0" type="internal" x="148.43" y="170.56" incLanes=":cluster_J13_J14_J17_J18_cluster_29564155_3953206284_3953206285_3953206286_#4more_4_0 E0_0 E22_0" intLanes=":cluster_J13_J14_J17_J18_cluster_29564155_3953206284_3953206285_3953206286_#4more_6_0 :cluster_J13_J14_J17_J18_cluster_29564155_3953206284_3953206285_3953206286_#4more_8_0 :cluster_J13_J14_J17_J18_cluster_29564155_3953206284_3953206285_3953206286_#4more_9_0 :cluster_J13_J14_J17_J18_cluster_29564155_3953206284_3953206285_3953206286_#4more_11_0 :cluster_J13_J14_J17_J18_cluster_29564155_3953206284_3953206285_3953206286_#4more_12_0 :cluster_J13_J14_J17_J18_cluster_29564155_3953206284_3953206285_3953206286_#4more_13_0 :cluster_J13_J14_J17_J18_cluster_29564155_3953206284_3953206285_3953206286_#4more_18_0 :cluster_J13_J14_J17_J18_cluster_29564155_3953206284_3953206285_3953206286_#4more_19_0"/>
    <junction id=":cluster_J13_J14_J17_J18_cluster_29564155_3953206284_3953206285_3953206286_#4more_21_0" type="internal" x="152.08" y="164.59" incLanes=":cluster_J13_J14_J17_J18_cluster_29564155_3953206284_3953206285_3953206286_#4more_9_0 E19_0 E2_0" intLanes=":cluster_J13_J14_J17_J18_cluster_29564155_3953206284_3953206285_3953206286_#4more_3_0 :cluster_J13_J14_J17_J18_cluster_29564155_3953206284_3953206285_3953206286_#4more_4_0 :cluster_J13_J14_J17_J18_cluster_29564155_3953206284_3953206285_3953206286_#4more_11_0 :cluster_J13_J14_J17_J18_cluster_29564155_3953206284_3953206285_3953206286_#4more_13_0 :cluster_J13_J14_J17_J18_cluster_29564155_3953206284_3953206285_3953206286_#4more_14_0 :cluster_J13_J14_J17_J18_cluster_29564155_3953206284_3953206285_3953206286_#4more_16_0 :cluster_J13_J14_J17_J18_cluster_29564155_3953206284_3953206285_3953206286_#4more_17_0 :cluster_J13_J14_J17_J18_cluster_29564155_3953206284_3953206285_3953206286_#4more_18_0"/>
    <junction id=":cluster_J13_J14_J17_J18_cluster_29564155_3953206284_3953206285_3953206286_#4more_22_0" type="internal" x="146.12" y="161.22" incLanes=":cluster_J13_J14_J17_J18_cluster_29564155_3953206284_3953206285_3953206286_#4more_14_0 E25_0 E3_0" intLanes=":cluster_J13_J14_J17_J18_cluster_29564155_3953206284_3953206285_3953206286_#4more_1_0 :cluster_J13_J14_J17_J18_cluster_29564155_3953206284_3953206285_3953206286_#4more_2_0 :cluster_J13_J14_J17_J18_cluster_29564155_3953206284_3953206285_3953206286_#4more_3_0 :cluster_J13_J14_J17_J18_cluster_29564155_3953206284_3953206285_3953206286_#4more_8_0 :cluster_J13_J14_J17_J18_cluster_29564155_3953206284_3953206285_3953206286_#4more_9_0 :cluster_J13_J14_J17_J18_cluster_29564155_3953206284_3953206285_3953206286_#4more_16_0 :cluster_J13_J14_J17_J18_cluster_29564155_3953206284_3953206285_3953206286_#4more_18_0 :cluster_J13_J14_J17_J18_cluster_29564155_3953206284_3953206285_3953206286_#4more_19_0"/>
    <junction id=":cluster_J13_J14_J17_J18_cluster_29564155_3953206284_3953206285_3953206286_#4more_23_0" type="internal" x="142.61" y="167.15" incLanes=":cluster_J13_J14_J17_J18_cluster_29564155_3953206284_3953206285_3953206286_#4more_19_0 E16_0 E1_0" intLanes=":cluster_J13_J14_J17_J18_cluster_29564155_3953206284_3953206285_3953206286_#4more_1_0 :cluster_J13_J14_J17_J18_cluster_29564155_3953206284_3953206285_3953206286_#4more_3_0 :cluster_J13_J14_J17_J18_cluster_29564155_3953206284_3953206285_3953206286_#4more_4_0 :cluster_J13_J14_J17_J18_cluster_29564155_3953206284_3953206285_3953206286_#4more_6_0 :cluster_J13_J14_J17_J18_cluster_29564155_3953206284_3953206285_3953206286_#4more_7_0 :cluster_J13_J14_J17_J18_cluster_29564155_3953206284_3953206285_3953206286_#4more_8_0 :cluster_J13_J14_J17_J18_cluster_29564155_3953206284_3953206285_3953206286_#4more_13_0 :cluster_J13_J14_J17_J18_cluster_29564155_3953206284_3953206285_3953206286_#4more_14_0"/>

    <connection from="E0" to="-E1" fromLane="0" toLane="0" via=":cluster_J13_J14_J17_J18_cluster_29564155_3953206284_3953206285_3953206286_#4more_12_0" tl="J0" linkIndex="12" dir="r" state="o"/>
    <connection from="E0" to="-E3" fromLane="0" toLane="0" via=":cluster_J13_J14_J17_J18_cluster_29564155_3953206284_3953206285_3953206286_#4more_13_0" tl="J0" linkIndex="13" dir="s" state="o"/>
    <connection from="E0" to="-E2" fromLane="0" toLane="0" via=":cluster_J13_J14_J17_J18_cluster_29564155_3953206284_3953206285_3953206286_#4more_14_0" tl="J0" linkIndex="14" dir="L" state="o"/>
    <connection from="E1" to="-E3" fromLane="0" toLane="0" via=":cluster_J13_J14_J17_J18_cluster_29564155_3953206284_3953206285_3953206286_#4more_7_0" tl="J0" linkIndex="7" dir="R" state="o"/>
    <connection from="E1" to="-E2" fromLane="0" toLane="0" via=":cluster_J13_J14_J17_J18_cluster_29564155_3953206284_3953206285_3953206286_#4more_8_0" tl="J0" linkIndex="8" dir="s" state="o"/>