<?xml version="1.0" encoding="UTF-8"?>

<!-- generated on 2025-02-02 22:04:14 by Eclipse SUMO netedit Version 1.11.0
<configuration xmlns:xsi="http://www.w3.org/2001/XMLSchema-instance" xsi:noNamespaceSchemaLocation="http://sumo.dlr.de/xsd/netconvertConfiguration.xsd">

    <input>
        <sumo-net-file value="network_large_signalized_50.net.xml"/>
    </input>

    <output>
        <output-file value="C:\FTO-Sim\Additionals\OJ_T-ITS\network\network_large_signalized_30.net.xml"/>
    </output>

    <processing>
        <geometry.min-radius.fix.railways value="false"/>
        <geometry.max-grade.fix value="false"/>
        <offset.disable-normalization value="true"/>
        <lefthand value="false"/>
    </processing>

    <junctions>
        <no-turnarounds value="true"/>
        <junctions.corner-detail value="5"/>
        <junctions.limit-turn-speed value="5.5"/>
        <rectangular-lane-cut value="false"/>
    </junctions>

    <pedestrian>
        <walkingareas value="false"/>
    </pedestrian>

    <report>
        <aggregate-warnings value="5"/>
    </report>

</configuration>
-->

<net version="1.9" junctionCornerDetail="5" limitTurnSpeed="5.50" xmlns:xsi="http://www.w3.org/2001/XMLSchema-instance" xsi:noNamespaceSchemaLocation="http://sumo.dlr.de/xsd/net_file.xsd">

    <location netOffset="-691674.80,-5335503.47" convBoundary="28.55,29.45,294.95,270.49" origBoundary="11.576875,48.143805,11.586043,48.160615" projParameter="+proj=utm +zone=32 +ellps=WGS84 +datum=WGS84 +units=m +no_defs"/>

    <type id="highway.bridleway" priority="1" numLanes="1" speed="2.78" allow="pedestrian" oneway="1" width="2.00"/>
    <type id="highway.bus_guideway" priority="1" numLanes="1" speed="27.78" allow="bus" oneway="1"/>
    <type id="highway.cycleway" priority="1" numLanes="1" speed="5.56" allow="bicycle" oneway="0" width="1.00"/>
    <type id="highway.footway" priority="1" numLanes="1" speed="2.78" allow="pedestrian" oneway="1" width="2.00"/>
    <type id="highway.ford" priority="1" numLanes="1" speed="2.78" allow="army" oneway="0"/>
    <type id="highway.living_street" priority="2" numLanes="1" speed="2.78" disallow="tram rail_urban rail rail_electric rail_fast ship" oneway="0"/>
    <type id="highway.motorway" priority="14" numLanes="2" speed="39.44" allow="private emergency authority army vip passenger hov taxi bus coach delivery truck trailer motorcycle evehicle custom1 custom2" oneway="1"/>
    <type id="highway.motorway_link" priority="9" numLanes="1" speed="22.22" allow="private emergency authority army vip passenger hov taxi bus coach delivery truck trailer motorcycle evehicle custom1 custom2" oneway="1"/>
    <type id="highway.path" priority="1" numLanes="1" speed="5.56" allow="pedestrian bicycle" oneway="0" width="2.00"/>
    <type id="highway.pedestrian" priority="1" numLanes="1" speed="2.78" allow="pedestrian" oneway="1" width="2.00"/>
    <type id="highway.primary" priority="12" numLanes="2" speed="27.78" disallow="tram rail_urban rail rail_electric rail_fast ship" oneway="0"/>
    <type id="highway.primary_link" priority="7" numLanes="1" speed="22.22" disallow="tram rail_urban rail rail_electric rail_fast ship" oneway="0"/>
    <type id="highway.raceway" priority="15" numLanes="2" speed="83.33" allow="vip" oneway="0"/>
    <type id="highway.residential" priority="3" numLanes="1" speed="13.89" disallow="tram rail_urban rail rail_electric rail_fast ship" oneway="0"/>
    <type id="highway.secondary" priority="11" numLanes="1" speed="27.78" disallow="tram rail_urban rail rail_electric rail_fast ship" oneway="0"/>
    <type id="highway.secondary_link" priority="6" numLanes="1" speed="22.22" disallow="tram rail_urban rail rail_electric rail_fast ship" oneway="0"/>
    <type id="highway.service" priority="1" numLanes="1" speed="5.56" allow="pedestrian delivery bicycle" oneway="0"/>
    <type id="highway.stairs" priority="1" numLanes="1" speed="1.39" allow="pedestrian" oneway="1" width="2.00"/>
    <type id="highway.step" priority="1" numLanes="1" speed="1.39" allow="pedestrian" oneway="1" width="2.00"/>
    <type id="highway.steps" priority="1" numLanes="1" speed="1.39" allow="pedestrian" oneway="1" width="2.00"/>
    <type id="highway.tertiary" priority="10" numLanes="1" speed="22.22" disallow="tram rail_urban rail rail_electric rail_fast ship" oneway="0"/>
    <type id="highway.tertiary_link" priority="5" numLanes="1" speed="22.22" disallow="tram rail_urban rail rail_electric rail_fast ship" oneway="0"/>
    <type id="highway.track" priority="1" numLanes="1" speed="5.56" allow="pedestrian motorcycle moped bicycle" oneway="0"/>
    <type id="highway.trunk" priority="13" numLanes="2" speed="27.78" disallow="pedestrian bicycle tram rail_urban rail rail_electric rail_fast ship" oneway="0"/>
    <type id="highway.trunk_link" priority="8" numLanes="1" speed="22.22" disallow="pedestrian bicycle tram rail_urban rail rail_electric rail_fast ship" oneway="0"/>
    <type id="highway.unclassified" priority="4" numLanes="1" speed="13.89" disallow="tram rail_urban rail rail_electric rail_fast ship" oneway="0"/>
    <type id="highway.unsurfaced" priority="1" numLanes="1" speed="8.33" disallow="tram rail_urban rail rail_electric rail_fast ship" oneway="0"/>
    <type id="railway.highspeed" priority="21" numLanes="1" speed="69.44" allow="rail_fast" oneway="1"/>
    <type id="railway.light_rail" priority="19" numLanes="1" speed="27.78" allow="rail_urban" oneway="1"/>
    <type id="railway.preserved" priority="16" numLanes="1" speed="27.78" allow="rail" oneway="1"/>
    <type id="railway.rail" priority="20" numLanes="1" speed="44.44" allow="rail" oneway="1"/>
    <type id="railway.subway" priority="18" numLanes="1" speed="27.78" allow="rail_urban" oneway="1"/>
    <type id="railway.tram" priority="17" numLanes="1" speed="13.89" allow="tram" oneway="1"/>

    <edge id=":cluster_J0_J1_J2_J3_cluster_29564155_3953206284_3953206285_3953206286_#4more_0" function="internal">
        <lane id=":cluster_J0_J1_J2_J3_cluster_29564155_3953206284_3953206285_3953206286_#4more_0_0" index="0" speed="8.33" length="17.26" shape="146.35,180.60 144.59,176.24 141.84,173.55 138.07,172.53 133.31,173.18"/>
    </edge>
    <edge id=":cluster_J0_J1_J2_J3_cluster_29564155_3953206284_3953206285_3953206286_#4more_1" function="internal">
        <lane id=":cluster_J0_J1_J2_J3_cluster_29564155_3953206284_3953206285_3953206286_#4more_1_0" index="0" speed="8.33" length="30.91" shape="146.35,180.60 138.93,150.60"/>
        <lane id=":cluster_J0_J1_J2_J3_cluster_29564155_3953206284_3953206285_3953206286_#4more_1_1" index="1" speed="8.33" length="30.91" shape="149.46,179.86 142.04,149.84"/>
    </edge>
    <edge id=":cluster_J0_J1_J2_J3_cluster_29564155_3953206284_3953206285_3953206286_#4more_3" function="internal">
        <lane id=":cluster_J0_J1_J2_J3_cluster_29564155_3953206284_3953206285_3953206286_#4more_3_0" index="0" speed="8.33" length="8.63" shape="149.46,179.86 148.71,172.26 149.00,171.31"/>
    </edge>
    <edge id=":cluster_J0_J1_J2_J3_cluster_29564155_3953206284_3953206285_3953206286_#4more_24" function="internal">
        <lane id=":cluster_J0_J1_J2_J3_cluster_29564155_3953206284_3953206285_3953206286_#4more_24_0" index="0" speed="8.33" length="19.01" shape="149.00,171.31 150.51,166.23 154.86,161.77 161.76,158.87"/>
    </edge>
    <edge id=":cluster_J0_J1_J2_J3_cluster_29564155_3953206284_3953206285_3953206286_#4more_4" function="internal">
        <lane id=":cluster_J0_J1_J2_J3_cluster_29564155_3953206284_3953206285_3953206286_#4more_4_0" index="0" allow="bicycle" speed="5.56" length="7.98" width="1.00" shape="164.83,170.80 162.93,171.63 161.74,172.94 161.26,174.73 161.50,177.00"/>
    </edge>
    <edge id=":cluster_J0_J1_J2_J3_cluster_29564155_3953206284_3953206285_3953206286_#4more_5" function="internal">
        <lane id=":cluster_J0_J1_J2_J3_cluster_29564155_3953206284_3953206285_3953206286_#4more_5_0" index="0" allow="bicycle" speed="5.56" length="31.02" width="1.00" shape="164.83,170.80 134.88,178.85"/>
    </edge>
    <edge id=":cluster_J0_J1_J2_J3_cluster_29564155_3953206284_3953206285_3953206286_#4more_6" function="internal">
        <lane id=":cluster_J0_J1_J2_J3_cluster_29564155_3953206284_3953206285_3953206286_#4more_6_0" index="0" speed="8.33" length="17.46" shape="163.35,165.07 159.04,166.89 156.32,169.72 155.20,173.55 155.69,178.38"/>
    </edge>
    <edge id=":cluster_J0_J1_J2_J3_cluster_29564155_3953206284_3953206285_3953206286_#4more_7" function="internal">
        <lane id=":cluster_J0_J1_J2_J3_cluster_29564155_3953206284_3953206285_3953206286_#4more_7_0" index="0" speed="8.33" length="31.15" shape="163.35,165.07 133.31,173.18"/>
        <lane id=":cluster_J0_J1_J2_J3_cluster_29564155_3953206284_3953206285_3953206286_#4more_7_1" index="1" speed="8.33" length="31.15" shape="162.56,161.97 132.46,170.09"/>
    </edge>
    <edge id=":cluster_J0_J1_J2_J3_cluster_29564155_3953206284_3953206285_3953206286_#4more_9" function="internal">
        <lane id=":cluster_J0_J1_J2_J3_cluster_29564155_3953206284_3953206285_3953206286_#4more_9_0" index="0" speed="8.33" length="8.36" shape="162.56,161.97 155.13,162.80 154.28,162.54"/>
    </edge>
    <edge id=":cluster_J0_J1_J2_J3_cluster_29564155_3953206284_3953206285_3953206286_#4more_25" function="internal">
        <lane id=":cluster_J0_J1_J2_J3_cluster_29564155_3953206284_3953206285_3953206286_#4more_25_0" index="0" speed="8.33" length="18.85" shape="154.28,162.54 149.24,161.05 144.88,156.73 142.04,149.84"/>
    </edge>
    <edge id=":cluster_J0_J1_J2_J3_cluster_29564155_3953206284_3953206285_3953206286_#4more_10" function="internal">
        <lane id=":cluster_J0_J1_J2_J3_cluster_29564155_3953206284_3953206285_3953206286_#4more_10_0" index="0" allow="bicycle" speed="5.56" length="7.25" width="1.00" shape="154.04,146.88 154.80,148.72 155.96,149.88 157.53,150.34 159.50,150.13"/>
    </edge>
    <edge id=":cluster_J0_J1_J2_J3_cluster_29564155_3953206284_3953206285_3953206286_#4more_11" function="internal">
        <lane id=":cluster_J0_J1_J2_J3_cluster_29564155_3953206284_3953206285_3953206286_#4more_11_0" index="0" allow="bicycle" speed="5.56" length="31.03" width="1.00" shape="154.04,146.88 161.50,177.00"/>
    </edge>
    <edge id=":cluster_J0_J1_J2_J3_cluster_29564155_3953206284_3953206285_3953206286_#4more_12" function="internal">
        <lane id=":cluster_J0_J1_J2_J3_cluster_29564155_3953206284_3953206285_3953206286_#4more_12_0" index="0" speed="8.33" length="16.82" shape="148.25,148.31 150.01,152.56 152.71,155.22 156.36,156.29 160.96,155.77"/>
    </edge>
    <edge id=":cluster_J0_J1_J2_J3_cluster_29564155_3953206284_3953206285_3953206286_#4more_13" function="internal">
        <lane id=":cluster_J0_J1_J2_J3_cluster_29564155_3953206284_3953206285_3953206286_#4more_13_0" index="0" speed="8.33" length="30.97" shape="148.25,148.31 155.69,178.38"/>
        <lane id=":cluster_J0_J1_J2_J3_cluster_29564155_3953206284_3953206285_3953206286_#4more_13_1" index="1" speed="8.33" length="30.97" shape="145.15,149.07 152.58,179.12"/>
    </edge>
    <edge id=":cluster_J0_J1_J2_J3_cluster_29564155_3953206284_3953206285_3953206286_#4more_15" function="internal">
        <lane id=":cluster_J0_J1_J2_J3_cluster_29564155_3953206284_3953206285_3953206286_#4more_15_0" index="0" speed="8.33" length="8.52" shape="145.15,149.07 145.90,156.50 145.59,157.51"/>
    </edge>
    <edge id=":cluster_J0_J1_J2_J3_cluster_29564155_3953206284_3953206285_3953206286_#4more_26" function="internal">
        <lane id=":cluster_J0_J1_J2_J3_cluster_29564155_3953206284_3953206285_3953206286_#4more_26_0" index="0" speed="8.33" length="19.31" shape="145.59,157.51 144.04,162.48 139.56,167.01 132.46,170.09"/>
    </edge>
    <edge id=":cluster_J0_J1_J2_J3_cluster_29564155_3953206284_3953206285_3953206286_#4more_16" function="internal">
        <lane id=":cluster_J0_J1_J2_J3_cluster_29564155_3953206284_3953206285_3953206286_#4more_16_0" index="0" allow="bicycle" speed="5.56" length="8.48" width="1.00" shape="129.28,158.60 131.37,157.67 132.68,156.27 133.21,154.41 132.97,152.08"/>
    </edge>
    <edge id=":cluster_J0_J1_J2_J3_cluster_29564155_3953206284_3953206285_3953206286_#4more_17" function="internal">
        <lane id=":cluster_J0_J1_J2_J3_cluster_29564155_3953206284_3953206285_3953206286_#4more_17_0" index="0" allow="bicycle" speed="5.56" length="31.39" width="1.00" shape="129.28,158.60 159.50,150.13"/>
    </edge>
    <edge id=":cluster_J0_J1_J2_J3_cluster_29564155_3953206284_3953206285_3953206286_#4more_18" function="internal">
        <lane id=":cluster_J0_J1_J2_J3_cluster_29564155_3953206284_3953206285_3953206286_#4more_18_0" index="0" speed="8.33" length="17.72" shape="130.75,163.92 135.31,161.96 138.19,159.08 139.40,155.30 138.93,150.60"/>
    </edge>
    <edge id=":cluster_J0_J1_J2_J3_cluster_29564155_3953206284_3953206285_3953206286_#4more_19" function="internal">
        <lane id=":cluster_J0_J1_J2_J3_cluster_29564155_3953206284_3953206285_3953206286_#4more_19_0" index="0" speed="8.33" length="31.26" shape="130.75,163.92 160.96,155.77"/>
        <lane id=":cluster_J0_J1_J2_J3_cluster_29564155_3953206284_3953206285_3953206286_#4more_19_1" index="1" speed="8.33" length="31.26" shape="131.60,167.01 161.76,158.87"/>
    </edge>
    <edge id=":cluster_J0_J1_J2_J3_cluster_29564155_3953206284_3953206285_3953206286_#4more_21" function="internal">
        <lane id=":cluster_J0_J1_J2_J3_cluster_29564155_3953206284_3953206285_3953206286_#4more_21_0" index="0" speed="8.33" length="8.88" shape="131.60,167.01 139.25,165.99 140.38,166.30"/>
    </edge>
    <edge id=":cluster_J0_J1_J2_J3_cluster_29564155_3953206284_3953206285_3953206286_#4more_27" function="internal">
        <lane id=":cluster_J0_J1_J2_J3_cluster_29564155_3953206284_3953206285_3953206286_#4more_27_0" index="0" speed="8.33" length="18.97" shape="140.38,166.30 145.30,167.66 149.74,172.04 152.58,179.12"/>
    </edge>
    <edge id=":cluster_J0_J1_J2_J3_cluster_29564155_3953206284_3953206285_3953206286_#4more_22" function="internal">
        <lane id=":cluster_J0_J1_J2_J3_cluster_29564155_3953206284_3953206285_3953206286_#4more_22_0" index="0" allow="bicycle" speed="5.56" length="7.23" width="1.00" shape="140.30,182.04 139.56,180.19 138.41,179.05 136.85,178.60 134.88,178.85"/>
    </edge>
    <edge id=":cluster_J0_J1_J2_J3_cluster_29564155_3953206284_3953206285_3953206286_#4more_23" function="internal">
        <lane id=":cluster_J0_J1_J2_J3_cluster_29564155_3953206284_3953206285_3953206286_#4more_23_0" index="0" allow="bicycle" speed="5.56" length="30.85" width="1.00" shape="140.30,182.04 132.97,152.08"/>
    </edge>

    <edge id="-E0" from="cluster_J0_J1_J2_J3_cluster_29564155_3953206284_3953206285_3953206286_#4more" to="J0" priority="-1" shape="147.34,164.25 113.76,31.65">
        <lane id="-E0_0" index="0" speed="8.33" length="121.50" shape="138.93,150.60 109.11,32.83"/>
        <lane id="-E0_1" index="1" speed="8.33" length="121.50" shape="142.04,149.84 112.21,32.04"/>
    </edge>
    <edge id="-E1" from="cluster_J0_J1_J2_J3_cluster_29564155_3953206284_3953206285_3953206286_#4more" to="J2" priority="-1" shape="147.34,164.25 292.79,126.63">
        <lane id="-E1_0" index="0" speed="8.33" length="134.93" shape="160.96,155.77 291.59,121.98"/>
        <lane id="-E1_1" index="1" speed="8.33" length="134.93" shape="161.76,158.87 292.39,125.08"/>
    </edge>
    <edge id="-E2" from="cluster_J0_J1_J2_J3_cluster_29564155_3953206284_3953206285_3953206286_#4more" to="J4" priority="-1" shape="147.34,164.25 31.42,196.81">
        <lane id="-E2_0" index="0" speed="8.33" length="104.49" shape="133.31,173.18 32.72,201.43"/>
        <lane id="-E2_1" index="1" speed="8.33" length="104.49" shape="132.46,170.09 31.85,198.35"/>
    </edge>
    <edge id="-E3" from="cluster_J0_J1_J2_J3_cluster_29564155_3953206284_3953206285_3953206286_#4more" to="J3" priority="-1" shape="147.34,164.25 172.58,268.81">
        <lane id="-E3_0" index="0" speed="8.33" length="91.87" shape="155.69,178.38 177.25,267.68"/>
        <lane id="-E3_1" index="1" speed="8.33" length="91.87" shape="152.58,179.12 174.14,268.43"/>
    </edge>
    <edge id="E0" from="J0" to="cluster_J0_J1_J2_J3_cluster_29564155_3953206284_3953206285_3953206286_#4more" priority="-1" shape="113.76,31.65 147.34,164.25">
        <lane id="E0_0" index="0" speed="8.33" length="121.55" shape="118.41,30.47 148.25,148.31"/>
        <lane id="E0_1" index="1" speed="8.33" length="121.55" shape="115.31,31.26 145.15,149.07"/>
    </edge>
    <edge id="E1" from="J2" to="cluster_J0_J1_J2_J3_cluster_29564155_3953206284_3953206285_3953206286_#4more" priority="-1" shape="292.79,126.63 147.34,164.25">
        <lane id="E1_0" index="0" speed="8.33" length="134.94" shape="293.99,131.28 163.35,165.07"/>
        <lane id="E1_1" index="1" speed="8.33" length="134.94" shape="293.19,128.18 162.56,161.97"/>
    </edge>
    <edge id="E16" from="J26" to="cluster_J0_J1_J2_J3_cluster_29564155_3953206284_3953206285_3953206286_#4more" priority="1" type="highway.cycleway" shape="294.95,136.33 159.71,171.62">
        <lane id="E16_0" index="0" allow="bicycle" speed="5.56" length="134.61" width="1.00" shape="295.08,136.81 164.83,170.80"/>
    </edge>
    <edge id="E18" from="cluster_J0_J1_J2_J3_cluster_29564155_3953206284_3953206285_3953206286_#4more" to="J27" priority="1" type="highway.cycleway" shape="139.59,177.03 34.02,206.20">
        <lane id="E18_0" index="0" allow="bicycle" speed="5.56" length="104.50" width="1.00" shape="134.88,178.85 34.15,206.68"/>
    </edge>
    <edge id="E19" from="J28" to="cluster_J0_J1_J2_J3_cluster_29564155_3953206284_3953206285_3953206286_#4more" priority="1" type="highway.cycleway" shape="28.55,187.67 134.83,157.55">
        <lane id="E19_0" index="0" allow="bicycle" speed="5.56" length="104.84" width="1.00" shape="28.41,187.19 129.28,158.60"/>
    </edge>
    <edge id="E2" from="J4" to="cluster_J0_J1_J2_J3_cluster_29564155_3953206284_3953206285_3953206286_#4more" priority="-1" shape="31.42,196.81 147.34,164.25">
        <lane id="E2_0" index="0" speed="8.33" length="104.52" shape="30.12,192.19 130.75,163.92"/>
        <lane id="E2_1" index="1" speed="8.33" length="104.52" shape="30.99,195.27 131.60,167.01"/>
    </edge>
    <edge id="E21" from="cluster_J0_J1_J2_J3_cluster_29564155_3953206284_3953206285_3953206286_#4more" to="J29" priority="1" type="highway.cycleway" shape="154.78,151.86 289.58,117.11">
        <lane id="E21_0" index="0" allow="bicycle" speed="5.56" length="134.20" width="1.00" shape="159.50,150.13 289.46,116.63"/>
    </edge>
    <edge id="E22" from="J18" to="cluster_J0_J1_J2_J3_cluster_29564155_3953206284_3953206285_3953206286_#4more" priority="1" type="highway.cycleway" shape="124.00,29.45 154.78,151.86">
        <lane id="E22_0" index="0" allow="bicycle" speed="5.56" length="121.21" width="1.00" shape="124.48,29.33 154.04,146.88"/>
    </edge>
    <edge id="E24" from="cluster_J0_J1_J2_J3_cluster_29564155_3953206284_3953206285_3953206286_#4more" to="J21" priority="1" type="highway.cycleway" shape="159.71,171.62 182.05,265.70">
        <lane id="E24_0" index="0" allow="bicycle" speed="5.56" length="91.04" width="1.00" shape="161.50,177.00 182.54,265.58"/>
    </edge>
    <edge id="E25" from="J22" to="cluster_J0_J1_J2_J3_cluster_29564155_3953206284_3953206285_3953206286_#4more" priority="1" type="highway.cycleway" shape="162.52,270.49 139.59,177.03">
        <lane id="E25_0" index="0" allow="bicycle" speed="5.56" length="91.20" width="1.00" shape="162.03,270.61 140.30,182.04"/>
    </edge>
    <edge id="E27" from="cluster_J0_J1_J2_J3_cluster_29564155_3953206284_3953206285_3953206286_#4more" to="J25" priority="1" type="highway.cycleway" shape="134.83,157.55 104.48,34.40">
        <lane id="E27_0" index="0" allow="bicycle" speed="5.56" length="121.07" width="1.00" shape="132.97,152.08 103.99,34.52"/>
    </edge>
    <edge id="E3" from="J3" to="cluster_J0_J1_J2_J3_cluster_29564155_3953206284_3953206285_3953206286_#4more" priority="-1" shape="172.58,268.81 147.34,164.25">
        <lane id="E3_0" index="0" speed="8.33" length="91.89" shape="167.91,269.94 146.35,180.60"/>
        <lane id="E3_1" index="1" speed="8.33" length="91.89" shape="171.02,269.19 149.46,179.86"/>
    </edge>

    <tlLogic id="cluster_J0_J1_J2_J3_cluster_29564155_3953206284_3953206285_3953206286_#4more" type="static" programID="0" offset="0">
        <phase duration="36" state="rrrrGGgGGgGrrrrrGGgGGgGr"/>
        <phase duration="9"  state="rrrrGyyyyyGrrrrrGyyyyyGr"/>
        <phase duration="36" state="gGGgGrrrrrGGgGGgGrrrrrGG"/>
        <phase duration="9"  state="yyyyGrrrrrGyyyyyGrrrrrGy"/>
    </tlLogic>

    <junction id="J0" type="dead_end" x="113.76" y="31.65" incLanes="-E0_0 -E0_1" intLanes="" shape="113.76,31.65 107.56,33.22 113.76,31.65"/>
    <junction id="J18" type="dead_end" x="124.00" y="29.45" incLanes="" intLanes="" shape="124.00,29.45 124.97,29.21"/>
    <junction id="J2" type="dead_end" x="292.79" y="126.63" incLanes="-E1_0 -E1_1" intLanes="" shape="292.79,126.63 291.19,120.43 292.79,126.63"/>
    <junction id="J21" type="dead_end" x="182.05" y="265.70" incLanes="E24_0" intLanes="" shape="183.02,265.47 182.05,265.70"/>
    <junction id="J22" type="dead_end" x="162.52" y="270.49" incLanes="" intLanes="" shape="162.52,270.49 161.55,270.73"/>
    <junction id="J25" type="dead_end" x="104.48" y="34.40" incLanes="E27_0" intLanes="" shape="103.51,34.64 104.48,34.40"/>
    <junction id="J26" type="dead_end" x="294.95" y="136.33" incLanes="" intLanes="" shape="294.95,136.33 295.20,137.30"/>
    <junction id="J27" type="dead_end" x="34.02" y="206.20" incLanes="E18_0" intLanes="" shape="34.29,207.16 34.02,206.20"/>
    <junction id="J28" type="dead_end" x="28.55" y="187.67" incLanes="" intLanes="" shape="28.55,187.67 28.28,186.71"/>
    <junction id="J29" type="dead_end" x="289.58" y="117.11" incLanes="E21_0" intLanes="" shape="289.33,116.14 289.58,117.11"/>
    <junction id="J3" type="dead_end" x="172.58" y="268.81" incLanes="-E3_0 -E3_1" intLanes="" shape="172.58,268.81 178.80,267.31 172.58,268.81"/>
    <junction id="J4" type="dead_end" x="31.42" y="196.81" incLanes="-E2_0 -E2_1" intLanes="" shape="31.42,196.81 33.15,202.97 31.42,196.81"/>
    <junction id="cluster_J0_J1_J2_J3_cluster_29564155_3953206284_3953206285_3953206286_#4more" type="traffic_light" x="147.25" y="164.46" incLanes="E3_0 E3_1 E16_0 E1_0 E1_1 E22_0 E0_0 E0_1 E19_0 E2_0 E2_1 E25_0" intLanes=":cluster_J0_J1_J2_J3_cluster_29564155_3953206284_3953206285_3953206286_#4more_0_0 :cluster_J0_J1_J2_J3_cluster_29564155_3953206284_3953206285_3953206286_#4more_1_0 :cluster_J0_J1_J2_J3_cluster_29564155_3953206284_3953206285_3953206286_#4more_1_1 :cluster_J0_J1_J2_J3_cluster_29564155_3953206284_3953206285_3953206286_#4more_24_0 :cluster_J0_J1_J2_J3_cluster_29564155_3953206284_3953206285_3953206286_#4more_4_0 :cluster_J0_J1_J2_J3_cluster_29564155_3953206284_3953206285_3953206286_#4more_5_0 :cluster_J0_J1_J2_J3_cluster_29564155_3953206284_3953206285_3953206286_#4more_6_0 :cluster_J0_J1_J2_J3_cluster_29564155_3953206284_3953206285_3953206286_#4more_7_0 :cluster_J0_J1_J2_J3_cluster_29564155_3953206284_3953206285_3953206286_#4more_7_1 :cluster_J0_J1_J2_J3_cluster_29564155_3953206284_3953206285_3953206286_#4more_25_0 :cluster_J0_J1_J2_J3_cluster_29564155_3953206284_3953206285_3953206286_#4more_10_0 :cluster_J0_J1_J2_J3_cluster_29564155_3953206284_3953206285_3953206286_#4more_11_0 :cluster_J0_J1_J2_J3_cluster_29564155_3953206284_3953206285_3953206286_#4more_12_0 :cluster_J0_J1_J2_J3_cluster_29564155_3953206284_3953206285_3953206286_#4more_13_0 :cluster_J0_J1_J2_J3_cluster_29564155_3953206284_3953206285_3953206286_#4more_13_1 :cluster_J0_J1_J2_J3_cluster_29564155_3953206284_3953206285_3953206286_#4more_26_0 :cluster_J0_J1_J2_J3_cluster_29564155_3953206284_3953206285_3953206286_#4more_16_0 :cluster_J0_J1_J2_J3_cluster_29564155_3953206284_3953206285_3953206286_#4more_17_0 :cluster_J0_J1_J2_J3_cluster_29564155_3953206284_3953206285_3953206286_#4more_18_0 :cluster_J0_J1_J2_J3_cluster_29564155_3953206284_3953206285_3953206286_#4more_19_0 :cluster_J0_J1_J2_J3_cluster_29564155_3953206284_3953206285_3953206286_#4more_19_1 :cluster_J0_J1_J2_J3_cluster_29564155_3953206284_3953206285_3953206286_#4more_27_0 :cluster_J0_J1_J2_J3_cluster_29564155_3953206284_3953206285_3953206286_#4more_22_0 :cluster_J0_J1_J2_J3_cluster_29564155_3953206284_3953206285_3953206286_#4more_23_0" shape="139.82,182.15 161.99,176.89 161.84,174.24 162.19,173.21 162.83,172.38 163.75,171.73 164.96,171.28 159.38,149.64 157.12,149.77 156.23,149.42 155.50,148.81 154.93,147.92 154.53,146.76 132.48,152.20 132.62,154.92 132.22,156.00 131.51,156.90 130.48,157.60 129.15,158.12 135.01,179.33 137.26,179.17 138.14,179.51 138.86,180.11 139.42,181.00">
        <request index="0"  response="100000000000000110100000" foes="100000000000000110100000" cont="0"/>
        <request index="1"  response="001110100000001000000000" foes="001111101000001110100000" cont="0"/>
        <request index="2"  response="001110100000001000000000" foes="001111101000001110100000" cont="0"/>
        <request index="3"  response="001110000110101110100000" foes="001110000110101110100000" cont="1"/>
        <request index="4"  response="000000000000100000000000" foes="000000000000100000000000" cont="0"/>
        <request index="5"  response="110000000000100000001110" foes="111000000110100001001111" cont="0"/>
        <request index="6"  response="000000000110100000100000" foes="000000000110100000100000" cont="0"/>
        <request index="7"  response="100000001000100000001110" foes="101000001110100000001111" cont="0"/>
        <request index="8"  response="100000001000100000001110" foes="101000001110100000001111" cont="0"/>
        <request index="9"  response="000110101110100000001110" foes="000110101110100000001110" cont="1"/>
        <request index="10" response="000000000000000000000000" foes="000000100000000000000000" cont="0"/>
        <request index="11" response="000000000000001000000000" foes="000110100001001111111000" cont="0"/>
        <request index="12" response="000110100000100000000000" foes="000110100000100000000000" cont="0"/>
        <request index="13" response="001000000000001110100000" foes="001110100000001111101000" cont="0"/>
        <request index="14" response="001000000000001110100000" foes="001110100000001111101000" cont="0"/>
        <request index="15" response="101110100000001110000110" foes="101110100000001110000110" cont="1"/>
        <request index="16" response="100000000000000000000000" foes="100000000000000000000000" cont="0"/>
        <request index="17" response="100000001110110000000000" foes="100001001111111000000110" cont="0"/>
        <request index="18" response="100000100000000000000110" foes="100000100000000000000110" cont="0"/>
        <request index="19" response="100000001110100000001000" foes="100000001111101000001110" cont="0"/>
        <request index="20" response="100000001110100000001000" foes="100000001111101000001110" cont="0"/>
        <request index="21" response="100000001110000110101110" foes="100000001110000110101110" cont="1"/>
        <request index="22" response="000000000000000000000000" foes="000000000000000000100000" cont="0"/>
        <request index="23" response="001000000000000000000000" foes="001111111000000110100001" cont="0"/>
    </junction>

    <junction id=":cluster_J0_J1_J2_J3_cluster_29564155_3953206284_3953206285_3953206286_#4more_24_0" type="internal" x="149.00" y="171.31" incLanes=":cluster_J0_J1_J2_J3_cluster_29564155_3953206284_3953206285_3953206286_#4more_3_0 E0_0 E0_1 E22_0" intLanes=":cluster_J0_J1_J2_J3_cluster_29564155_3953206284_3953206285_3953206286_#4more_5_0 :cluster_J0_J1_J2_J3_cluster_29564155_3953206284_3953206285_3953206286_#4more_7_0 :cluster_J0_J1_J2_J3_cluster_29564155_3953206284_3953206285_3953206286_#4more_7_1 :cluster_J0_J1_J2_J3_cluster_29564155_3953206284_3953206285_3953206286_#4more_9_0 :cluster_J0_J1_J2_J3_cluster_29564155_3953206284_3953206285_3953206286_#4more_11_0 :cluster_J0_J1_J2_J3_cluster_29564155_3953206284_3953206285_3953206286_#4more_12_0 :cluster_J0_J1_J2_J3_cluster_29564155_3953206284_3953206285_3953206286_#4more_13_0 :cluster_J0_J1_J2_J3_cluster_29564155_3953206284_3953206285_3953206286_#4more_13_1 :cluster_J0_J1_J2_J3_cluster_29564155_3953206284_3953206285_3953206286_#4more_19_0 :cluster_J0_J1_J2_J3_cluster_29564155_3953206284_3953206285_3953206286_#4more_19_1 :cluster_J0_J1_J2_J3_cluster_29564155_3953206284_3953206285_3953206286_#4more_21_0"/>
    <junction id=":cluster_J0_J1_J2_J3_cluster_29564155_3953206284_3953206285_3953206286_#4more_25_0" type="internal" x="154.28" y="162.54" incLanes=":cluster_J0_J1_J2_J3_cluster_29564155_3953206284_3953206285_3953206286_#4more_9_0 E19_0 E2_0 E2_1" intLanes=":cluster_J0_J1_J2_J3_cluster_29564155_3953206284_3953206285_3953206286_#4more_1_0 :cluster_J0_J1_J2_J3_cluster_29564155_3953206284_3953206285_3953206286_#4more_1_1 :cluster_J0_J1_J2_J3_cluster_29564155_3953206284_3953206285_3953206286_#4more_3_0 :cluster_J0_J1_J2_J3_cluster_29564155_3953206284_3953206285_3953206286_#4more_11_0 :cluster_J0_J1_J2_J3_cluster_29564155_3953206284_3953206285_3953206286_#4more_13_0 :cluster_J0_J1_J2_J3_cluster_29564155_3953206284_3953206285_3953206286_#4more_13_1 :cluster_J0_J1_J2_J3_cluster_29564155_3953206284_3953206285_3953206286_#4more_15_0 :cluster_J0_J1_J2_J3_cluster_29564155_3953206284_3953206285_3953206286_#4more_17_0 :cluster_J0_J1_J2_J3_cluster_29564155_3953206284_3953206285_3953206286_#4more_18_0 :cluster_J0_J1_J2_J3_cluster_29564155_3953206284_3953206285_3953206286_#4more_19_0 :cluster_J0_J1_J2_J3_cluster_29564155_3953206284_3953206285_3953206286_#4more_19_1"/>