<?xml version="1.0" encoding="UTF-8"?>

<!-- Example Network File for FTO-Sim -->

<net version="1.9" junctionCornerDetail="5" walkingareas="true" limitTurnSpeed="5.50" xmlns:xsi="http://www.w3.org/2001/XMLSchema-instance" xsi:noNamespaceSchemaLocation="http://sumo.dlr.de/xsd/net_file.xsd">

    <location netOffset="-690350.21,-5334634.56" convBoundary="561.22,1274.26,861.94,1618.53" origBoundary="11.559153,48.136328,11.577917,48.160116" projParameter="+proj=utm +zone=32 +ellps=WGS84 +datum=WGS84 +units=m +no_defs"/>

    <type id="cycleway.lane|highway.residential" priority="3" numLanes="1" speed="13.89" disallow="pedestrian tram rail_urban rail rail_electric rail_fast ship" oneway="0" sidewalkWidth="2.00" bikeLaneWidth="1.25"/>
    <type id="cycleway.lane|highway.secondary" priority="11" numLanes="1" speed="13.89" disallow="pedestrian tram rail_urban rail rail_electric rail_fast ship" oneway="0" sidewalkWidth="3.00" bikeLaneWidth="1.25"/>
    <type id="highway.cycleway" priority="1" numLanes="1" speed="5.56" allow="bicycle" oneway="0" width="2.00"/>
    <type id="highway.footway" priority="1" numLanes="1" speed="2.78" allow="pedestrian" oneway="1" width="2.00"/>
    <type id="highway.path" priority="1" numLanes="1" speed="5.56" allow="pedestrian bicycle" oneway="0" width="2.00"/>
    <type id="highway.pedestrian" priority="1" numLanes="1" speed="2.78" allow="pedestrian" oneway="1" width="2.00"/>
    <type id="highway.residential" priority="3" numLanes="1" speed="13.89" disallow="pedestrian tram rail_urban rail rail_electric rail_fast ship" oneway="0" sidewalkWidth="2.00"/>
    <type id="highway.secondary" priority="11" numLanes="1" speed="13.89" disallow="pedestrian tram rail_urban rail rail_electric rail_fast ship" oneway="0" sidewalkWidth="3.00"/>
    <type id="highway.service" priority="1" numLanes="1" speed="5.56" allow="pedestrian delivery bicycle" oneway="0"/>
    <type id="highway.steps" priority="1" numLanes="1" speed="1.39" allow="pedestrian" oneway="1" width="2.00"/>
    <type id="highway.tertiary" priority="10" numLanes="1" speed="13.89" disallow="pedestrian tram rail_urban rail rail_electric rail_fast ship" oneway="0" sidewalkWidth="3.00"/>
    <type id="railway.tram" priority="17" numLanes="1" speed="13.89" allow="tram" oneway="1"/>

    <edge id=":130356128_w0" function="walkingarea">
        <lane id=":130356128_w0_0" index="0" allow="pedestrian" speed="1.00" length="4.05" width="2.00" shape="824.15,1451.71 826.00,1450.93 826.83,1449.03 826.14,1447.15 821.43,1448.91 822.14,1450.78 823.93,1451.25 823.67,1450.92 823.37,1450.71 823.03,1450.62 822.62,1450.64"/>
    </edge>
    <edge id=":130357281_w0" function="walkingarea">
        <lane id=":130357281_w0_0" index="0" allow="pedestrian" speed="1.00" length="3.54" width="2.00" shape="855.05,1440.26 856.92,1439.53 852.41,1437.51 853.10,1439.38 854.84,1439.83 854.60,1439.51 854.31,1439.31 853.97,1439.23 853.56,1439.25"/>
    </edge>
    <edge id=":130358856_0" function="internal">
        <lane id=":130358856_0_0" index="0" allow="pedestrian delivery bicycle" speed="3.65" length="4.67" shape="730.83,1403.03 732.23,1403.38 732.88,1404.00 732.77,1404.88 731.91,1406.04"/>
    </edge>
    <edge id=":130358856_w0" function="walkingarea">
        <lane id=":130358856_w0_0" index="0" allow="pedestrian" speed="1.00" length="6.22" width="3.20" shape="734.97,1398.25 733.09,1398.93 730.29,1401.52 731.37,1404.53 731.37,1404.53 732.45,1407.55 733.84,1409.04 735.71,1408.33 735.50,1400.32 735.53,1401.92 735.31,1403.30 735.10,1404.67 735.15,1406.27"/>
    </edge>
    <edge id=":130358861_w0" function="walkingarea">
        <lane id=":130358861_w0_0" index="0" allow="pedestrian" speed="1.00" length="4.03" width="2.00" shape="759.27,1476.02 761.14,1475.32 762.02,1473.38 761.32,1471.51 759.38,1470.63 757.51,1471.34 756.63,1473.28 757.34,1475.15 759.07,1475.59 758.82,1475.27 758.54,1475.07 758.20,1474.99 757.80,1475.01"/>
    </edge>
    <edge id=":130401549_w0" function="walkingarea">
        <lane id=":130401549_w0_0" index="0" allow="pedestrian" speed="1.00" length="0.30" width="2.00" shape="796.43,1460.54 795.72,1458.67 795.45,1458.78 796.15,1460.65"/>
    </edge>
    <edge id=":1344352581_w0" function="walkingarea">
        <lane id=":1344352581_w0_0" index="0" allow="pedestrian" speed="1.00" length="3.53" width="2.00" shape="861.89,1467.71 860.04,1468.49 859.22,1470.41 859.95,1472.28 862.24,1468.78 862.32,1469.71 862.14,1470.52 861.69,1471.20 860.96,1471.79"/>
    </edge>
    <edge id=":1344352595_w0" function="walkingarea">
        <lane id=":1344352595_w0_0" index="0" allow="pedestrian" speed="1.00" length="0.10" width="2.00" shape="806.99,1492.82 806.27,1490.96 806.27,1490.96 806.99,1492.82"/>
    </edge>
    <edge id=":2320917837_w0" function="walkingarea">
        <lane id=":2320917837_w0_0" index="0" allow="pedestrian" speed="1.00" length="2.10" width="2.00" shape="857.23,1445.82 859.09,1445.08 858.32,1443.13 856.46,1443.86"/>
    </edge>
    <edge id=":2320917839_w0" function="walkingarea">
        <lane id=":2320917839_w0_0" index="0" allow="pedestrian" speed="1.00" length="2.20" width="2.00" shape="826.50,1457.30 828.34,1456.52 827.49,1454.49 825.65,1455.26"/>
    </edge>
    <edge id=":2320917840_w0" function="walkingarea">
        <lane id=":2320917840_w0_0" index="0" allow="pedestrian" speed="1.00" length="1.91" width="2.00" shape="761.73,1482.55 763.56,1481.76 762.89,1480.02 761.01,1480.72"/>
    </edge>
    <edge id=":3153419923_w0" function="walkingarea">
        <lane id=":3153419923_w0_0" index="0" allow="pedestrian" speed="1.00" length="0.30" width="2.00" shape="772.18,1506.34 771.46,1504.47 771.19,1504.58 771.90,1506.45"/>
    </edge>
    <edge id=":3153419924_w0" function="walkingarea">
        <lane id=":3153419924_w0_0" index="0" allow="pedestrian" speed="1.00" length="6.92" width="3.00" shape="856.70,1460.51 858.55,1459.74 852.45,1453.60 853.51,1456.40"/>
    </edge>
    <edge id=":3153419925_w0" function="walkingarea">
        <lane id=":3153419925_w0_0" index="0" allow="pedestrian" speed="1.00" length="0.30" width="2.00" shape="858.49,1464.77 860.33,1464.00 860.22,1463.73 858.37,1464.50"/>
    </edge>
    <edge id=":3451083084_c0" function="crossing" crossingEdges="51476080#4 -51476080#4">
        <lane id=":3451083084_c0_0" index="0" allow="pedestrian" speed="1.00" length="8.90" width="4.00" shape="708.12,1377.05 699.83,1380.29"/>
    </edge>
    <edge id=":3451083084_w0" function="walkingarea">
        <lane id=":3451083084_w0_0" index="0" allow="pedestrian" speed="1.00" length="7.71" width="4.00" shape="707.39,1375.19 708.85,1378.92 711.64,1377.82 696.88,1379.84 697.57,1381.72 697.76,1383.25 700.56,1382.16 699.10,1378.43"/>
    </edge>
    <edge id=":3966298543_w0" function="walkingarea">
        <lane id=":3966298543_w0_0" index="0" allow="pedestrian" speed="1.00" length="3.51" width="2.00" shape="858.33,1464.41 860.18,1463.64 858.63,1459.92 856.78,1460.69 855.58,1461.72 856.30,1463.58 858.11,1463.97 857.85,1463.66 857.54,1463.47 857.19,1463.40 856.78,1463.44"/>
    </edge>
    <edge id=":4534884727_w0" function="walkingarea">
        <lane id=":4534884727_w0_0" index="0" allow="pedestrian" speed="1.00" length="0.80" width="2.00" shape="698.13,1381.52 697.42,1379.65 698.21,1379.38 698.86,1381.27"/>
    </edge>
    <edge id=":4534884731_w0" function="walkingarea">
        <lane id=":4534884731_w0_0" index="0" allow="pedestrian" speed="1.00" length="2.88" width="2.00" shape="696.95,1383.60 698.81,1382.87 698.67,1381.33 698.02,1379.44 696.62,1382.64 696.43,1381.79 696.43,1381.04 696.67,1380.39 697.18,1379.86"/>
    </edge>
    <edge id=":4534884738_w0" function="walkingarea">
        <lane id=":4534884738_w0_0" index="0" allow="pedestrian" speed="1.00" length="1.58" width="2.00" shape="697.39,1381.79 696.69,1379.91 698.17,1379.37 698.87,1381.24"/>
    </edge>
    <edge id=":618163560_0" function="internal">
        <lane id=":618163560_0_0" index="0" allow="bicycle" speed="13.89" length="2.74" shape="620.07,1550.48 619.24,1550.60 618.62,1550.39 617.99,1550.17 617.15,1550.29"/>
        <lane id=":618163560_0_1" index="1" disallow="pedestrian bicycle tram rail_urban rail rail_electric rail_fast ship" speed="13.89" length="2.74" shape="619.24,1548.41 616.80,1549.38"/>
        <lane id=":618163560_0_2" index="2" disallow="pedestrian bicycle tram rail_urban rail rail_electric rail_fast ship" speed="13.89" length="2.74" shape="618.04,1545.45 615.64,1546.40"/>
    </edge>
    <edge id=":618697471_w0" function="walkingarea">
        <lane id=":618697471_w0_0" index="0" allow="pedestrian" speed="1.00" length="3.65" width="2.00" shape="766.02,1483.85 765.29,1481.99 763.64,1481.94 761.80,1482.74 760.62,1483.78 761.33,1485.65"/>
    </edge>
    <edge id=":6532448299_0" function="internal">
        <lane id=":6532448299_0_0" index="0" allow="bicycle" speed="5.56" length="0.31" width="1.00" shape="785.46,1573.54 785.57,1573.83"/>
    </edge>
    <edge id=":6532448299_w0" function="walkingarea">
        <lane id=":6532448299_w0_0" index="0" allow="pedestrian" speed="1.00" length="0.29" width="2.00" shape="786.03,1573.64 787.89,1572.89 787.79,1572.63 785.93,1573.36"/>
    </edge>
    <edge id=":8748721319_w0" function="walkingarea">
        <lane id=":8748721319_w0_0" index="0" allow="pedestrian" speed="1.00" length="4.03" width="2.00" shape="753.58,1478.21 755.44,1477.48 756.29,1475.55 755.58,1473.68 753.62,1472.82 751.75,1473.55"/>
    </edge>
    <edge id=":8748721320_w0" function="walkingarea">
        <lane id=":8748721320_w0_0" index="0" allow="pedestrian" speed="1.00" length="2.84" width="2.00" shape="757.08,1487.13 758.95,1486.41 760.40,1486.00 759.69,1484.13 757.69,1483.21 755.83,1483.94 756.52,1485.29 757.16,1487.19"/>
    </edge>
    <edge id=":8748721323_w0" function="walkingarea">
        <lane id=":8748721323_w0_0" index="0" allow="pedestrian" speed="1.00" length="2.44" width="2.00" shape="761.45,1498.24 762.21,1500.09 765.35,1498.80 764.60,1496.95 763.25,1497.63 761.38,1498.35 761.47,1498.24 761.46,1498.27 761.45,1498.31 761.42,1498.34 761.40,1498.36"/>
    </edge>
    <edge id=":8748721327_w0" function="walkingarea">
        <lane id=":8748721327_w0_0" index="0" allow="pedestrian" speed="1.00" length="3.69" width="2.00" shape="830.83,1458.76 830.12,1456.89 828.42,1456.71 826.58,1457.48 825.45,1458.67 826.17,1460.54"/>
    </edge>
    <edge id=":8748721328_w0" function="walkingarea">
        <lane id=":8748721328_w0_0" index="0" allow="pedestrian" speed="1.00" length="2.97" width="2.00" shape="859.16,1445.27 857.30,1446.00 856.12,1447.09 856.83,1448.96 859.41,1446.19 859.37,1446.96 859.06,1447.59 858.52,1448.11 857.77,1448.56"/>
    </edge>
    <edge id=":8748721337_w0" function="walkingarea">
        <lane id=":8748721337_w0_0" index="0" allow="pedestrian" speed="1.00" length="0.10" width="2.00" shape="717.17,1502.09 716.43,1500.23 716.43,1500.23 717.17,1502.09"/>
    </edge>
    <edge id=":8748721338_w0" function="walkingarea">
        <lane id=":8748721338_w0_0" index="0" allow="pedestrian" speed="1.00" length="4.03" width="2.00" shape="734.92,1495.04 734.18,1493.18 732.27,1492.33 730.39,1493.02 729.54,1495.03 730.28,1496.88"/>
    </edge>
    <edge id=":8748721344_w0" function="walkingarea">
        <lane id=":8748721344_w0_0" index="0" allow="pedestrian" speed="1.00" length="3.03" width="2.00" shape="618.68,1554.27 618.00,1552.39 616.32,1552.25 614.47,1553.01 617.71,1554.58 616.86,1554.73 616.12,1554.69 615.48,1554.41 614.93,1553.86"/>
    </edge>
    <edge id=":922879320_0" function="internal">
        <lane id=":922879320_0_0" index="0" allow="bicycle" speed="5.56" length="5.45" width="1.00" shape="759.76,1506.90 760.08,1508.49 760.34,1509.56 760.69,1510.61 761.28,1512.12"/>
    </edge>
    <edge id=":922879320_w0" function="walkingarea">
        <lane id=":922879320_w0_0" index="0" allow="pedestrian" speed="1.00" length="4.10" width="2.00" shape="761.74,1511.94 763.60,1511.20 764.62,1509.21 763.91,1507.34 762.21,1506.41 760.25,1506.80 760.47,1507.92 760.65,1508.75 760.83,1509.42 761.04,1510.08 761.33,1510.87"/>
    </edge>
    <edge id=":cluster_10824610463_1578496208_2155840709_8748689416_#4more_0" function="internal">
        <lane id=":cluster_10824610463_1578496208_2155840709_8748689416_#4more_0_0" index="0" allow="bicycle" speed="6.54" length="5.00" width="1.25" shape="747.98,1508.20 746.55,1505.45 745.22,1504.09"/>
    </edge>
    <edge id=":cluster_10824610463_1578496208_2155840709_8748689416_#4more_1" function="internal">
        <lane id=":cluster_10824610463_1578496208_2155840709_8748689416_#4more_1_0" index="0" allow="bicycle" speed="9.72" length="22.03" width="1.25" shape="747.98,1508.20 746.08,1502.40 745.22,1497.95 744.33,1493.30 742.34,1486.94"/>
    </edge>
    <edge id=":cluster_10824610463_1578496208_2155840709_8748689416_#4more_2" function="internal">
        <lane id=":cluster_10824610463_1578496208_2155840709_8748689416_#4more_2_0" index="0" allow="bicycle" speed="5.56" length="3.45" width="1.00" shape="747.98,1508.20 748.36,1504.77"/>
    </edge>
    <edge id=":cluster_10824610463_1578496208_2155840709_8748689416_#4more_3" function="internal">
        <lane id=":cluster_10824610463_1578496208_2155840709_8748689416_#4more_3_0" index="0" allow="bicycle" speed="4.31" length="2.45" shape="747.98,1508.20 750.24,1507.27"/>
    </edge>
    <edge id=":cluster_10824610463_1578496208_2155840709_8748689416_#4more_24" function="internal">
        <lane id=":cluster_10824610463_1578496208_2155840709_8748689416_#4more_24_0" index="0" allow="bicycle" speed="6.54" length="4.76" width="1.25" shape="745.22,1504.09 744.87,1503.73 742.94,1503.06 740.75,1503.43"/>
    </edge>
    <edge id=":cluster_10824610463_1578496208_2155840709_8748689416_#4more_25" function="internal">
        <lane id=":cluster_10824610463_1578496208_2155840709_8748689416_#4more_25_0" index="0" allow="bicycle" speed="5.56" length="14.47" width="1.00" shape="748.36,1504.77 748.58,1502.70 750.60,1499.92 754.03,1499.87 758.87,1502.54"/>
    </edge>
    <edge id=":cluster_10824610463_1578496208_2155840709_8748689416_#4more_26" function="internal">
        <lane id=":cluster_10824610463_1578496208_2155840709_8748689416_#4more_26_0" index="0" allow="bicycle" speed="4.31" length="6.54" shape="750.24,1507.27 756.30,1504.79"/>
    </edge>
    <edge id=":cluster_10824610463_1578496208_2155840709_8748689416_#4more_4" function="internal">
        <lane id=":cluster_10824610463_1578496208_2155840709_8748689416_#4more_4_0" index="0" allow="bicycle" speed="7.65" length="8.60" width="1.25" shape="751.42,1506.79 749.76,1504.17 747.43,1502.73 744.68,1502.51"/>
        <lane id=":cluster_10824610463_1578496208_2155840709_8748689416_#4more_4_1" index="1" disallow="pedestrian bicycle tram rail_urban rail rail_electric rail_fast ship" speed="8.30" length="11.06" shape="752.32,1506.42 750.26,1502.92 747.52,1500.90 744.13,1500.36 743.97,1500.40"/>
    </edge>
    <edge id=":cluster_10824610463_1578496208_2155840709_8748689416_#4more_6" function="internal">
        <lane id=":cluster_10824610463_1578496208_2155840709_8748689416_#4more_6_0" index="0" allow="bicycle" speed="13.89" length="21.82" width="1.25" shape="751.42,1506.79 742.34,1486.94"/>
        <lane id=":cluster_10824610463_1578496208_2155840709_8748689416_#4more_6_1" index="1" disallow="pedestrian bicycle tram rail_urban rail rail_electric rail_fast ship" speed="13.89" length="21.82" shape="752.32,1506.42 744.40,1486.10"/>
    </edge>
    <edge id=":cluster_10824610463_1578496208_2155840709_8748689416_#4more_8" function="internal">
        <lane id=":cluster_10824610463_1578496208_2155840709_8748689416_#4more_8_0" index="0" allow="bicycle" speed="4.71" length="8.70" width="1.00" shape="751.30,1506.84 758.87,1502.54"/>
    </edge>
    <edge id=":cluster_10824610463_1578496208_2155840709_8748689416_#4more_9" function="internal">
        <lane id=":cluster_10824610463_1578496208_2155840709_8748689416_#4more_9_0" index="0" disallow="pedestrian tram rail_urban rail rail_electric rail_fast ship" speed="3.65" length="2.34" shape="752.32,1506.42 752.61,1505.01 753.20,1504.33"/>
    </edge>
    <edge id=":cluster_10824610463_1578496208_2155840709_8748689416_#4more_27" function="internal">
        <lane id=":cluster_10824610463_1578496208_2155840709_8748689416_#4more_27_0" index="0" allow="bicycle" speed="7.65" length="4.05" width="1.25" shape="744.68,1502.51 744.43,1502.48 740.75,1503.43"/>
    </edge>
    <edge id=":cluster_10824610463_1578496208_2155840709_8748689416_#4more_28" function="internal">
        <lane id=":cluster_10824610463_1578496208_2155840709_8748689416_#4more_28_0" index="0" disallow="pedestrian bicycle tram rail_urban rail rail_electric rail_fast ship" speed="8.30" length="4.01" shape="743.97,1500.40 740.07,1501.31"/>
    </edge>
    <edge id=":cluster_10824610463_1578496208_2155840709_8748689416_#4more_29" function="internal">
        <lane id=":cluster_10824610463_1578496208_2155840709_8748689416_#4more_29_0" index="0" disallow="pedestrian tram rail_urban rail rail_electric rail_fast ship" speed="3.65" length="2.34" shape="753.20,1504.33 754.09,1504.40 755.28,1505.21"/>
    </edge>
    <edge id=":cluster_10824610463_1578496208_2155840709_8748689416_#4more_10" function="internal">
        <lane id=":cluster_10824610463_1578496208_2155840709_8748689416_#4more_10_0" index="0" allow="bicycle" speed="7.12" length="5.93" width="1.00" shape="763.72,1494.67 761.18,1496.02 759.52,1497.78 759.31,1498.37"/>
    </edge>
    <edge id=":cluster_10824610463_1578496208_2155840709_8748689416_#4more_11" function="internal">
        <lane id=":cluster_10824610463_1578496208_2155840709_8748689416_#4more_11_0" index="0" allow="bicycle" speed="7.79" length="9.80" shape="763.72,1494.67 759.46,1496.75 756.78,1499.15 756.23,1500.50"/>
    </edge>
    <edge id=":cluster_10824610463_1578496208_2155840709_8748689416_#4more_12" function="internal">
        <lane id=":cluster_10824610463_1578496208_2155840709_8748689416_#4more_12_0" index="0" allow="bicycle" speed="13.89" length="24.59" width="1.25" shape="763.72,1494.67 740.75,1503.43"/>
    </edge>
    <edge id=":cluster_10824610463_1578496208_2155840709_8748689416_#4more_13" function="internal">
        <lane id=":cluster_10824610463_1578496208_2155840709_8748689416_#4more_13_0" index="0" allow="bicycle" speed="10.49" length="21.90" width="1.25" shape="763.72,1494.67 756.32,1496.50 750.29,1495.83 745.63,1492.64 744.35,1490.43"/>
    </edge>
    <edge id=":cluster_10824610463_1578496208_2155840709_8748689416_#4more_14" function="internal">
        <lane id=":cluster_10824610463_1578496208_2155840709_8748689416_#4more_14_0" index="0" disallow="pedestrian bicycle tram rail_urban rail rail_electric rail_fast ship" speed="8.59" length="6.17" shape="762.93,1492.59 758.30,1494.97 757.63,1495.66"/>
    </edge>
    <edge id=":cluster_10824610463_1578496208_2155840709_8748689416_#4more_15" function="internal">
        <lane id=":cluster_10824610463_1578496208_2155840709_8748689416_#4more_15_0" index="0" disallow="pedestrian bicycle tram rail_urban rail rail_electric rail_fast ship" speed="13.89" length="24.52" shape="762.93,1492.59 740.07,1501.31"/>
        <lane id=":cluster_10824610463_1578496208_2155840709_8748689416_#4more_15_1" index="1" disallow="pedestrian bicycle tram rail_urban rail rail_electric rail_fast ship" speed="13.89" length="24.52" shape="762.93,1492.59 756.87,1494.37 751.80,1495.12 746.33,1496.02 739.09,1498.26"/>
    </edge>
    <edge id=":cluster_10824610463_1578496208_2155840709_8748689416_#4more_17" function="internal">
        <lane id=":cluster_10824610463_1578496208_2155840709_8748689416_#4more_17_0" index="0" disallow="pedestrian bicycle tram rail_urban rail rail_electric rail_fast ship" speed="9.90" length="18.34" shape="762.93,1492.59 756.49,1494.20 751.26,1493.66 747.23,1490.96 746.43,1489.59"/>
    </edge>
    <edge id=":cluster_10824610463_1578496208_2155840709_8748689416_#4more_30" function="internal">
        <lane id=":cluster_10824610463_1578496208_2155840709_8748689416_#4more_30_0" index="0" allow="bicycle" speed="7.12" length="4.27" width="1.00" shape="759.31,1498.37 758.75,1499.95 758.87,1502.54"/>
    </edge>
    <edge id=":cluster_10824610463_1578496208_2155840709_8748689416_#4more_31" function="internal">
        <lane id=":cluster_10824610463_1578496208_2155840709_8748689416_#4more_31_0" index="0" allow="bicycle" speed="7.79" length="4.49" shape="756.23,1500.50 755.69,1501.84 756.19,1504.84"/>
    </edge>
    <edge id=":cluster_10824610463_1578496208_2155840709_8748689416_#4more_32" function="internal">
        <lane id=":cluster_10824610463_1578496208_2155840709_8748689416_#4more_32_0" index="0" allow="bicycle" speed="10.49" length="4.02" width="1.25" shape="744.35,1490.43 742.34,1486.94"/>
    </edge>
    <edge id=":cluster_10824610463_1578496208_2155840709_8748689416_#4more_33" function="internal">
        <lane id=":cluster_10824610463_1578496208_2155840709_8748689416_#4more_33_0" index="0" disallow="pedestrian bicycle tram rail_urban rail rail_electric rail_fast ship" speed="8.59" length="10.65" shape="757.63,1495.66 755.48,1497.86 754.47,1501.28 755.28,1505.21"/>
    </edge>
    <edge id=":cluster_10824610463_1578496208_2155840709_8748689416_#4more_34" function="internal">
        <lane id=":cluster_10824610463_1578496208_2155840709_8748689416_#4more_34_0" index="0" disallow="pedestrian bicycle tram rail_urban rail rail_electric rail_fast ship" speed="9.90" length="4.03" shape="746.43,1489.59 744.40,1486.10"/>
    </edge>
    <edge id=":cluster_10824610463_1578496208_2155840709_8748689416_#4more_18" function="internal">
        <lane id=":cluster_10824610463_1578496208_2155840709_8748689416_#4more_18_0" index="0" allow="bicycle" speed="9.72" length="16.90" width="1.00" shape="749.42,1484.05 752.16,1489.66 754.77,1493.27 757.07,1496.88 757.65,1498.71"/>
    </edge>
    <edge id=":cluster_10824610463_1578496208_2155840709_8748689416_#4more_19" function="internal">
        <lane id=":cluster_10824610463_1578496208_2155840709_8748689416_#4more_19_0" index="0" allow="bicycle" speed="13.89" length="21.86" shape="749.42,1484.05 756.19,1504.84"/>
    </edge>
    <edge id=":cluster_10824610463_1578496208_2155840709_8748689416_#4more_20" function="internal">
        <lane id=":cluster_10824610463_1578496208_2155840709_8748689416_#4more_20_0" index="0" allow="bicycle" speed="10.19" length="12.11" width="1.25" shape="749.42,1484.05 750.86,1490.53 749.89,1495.91"/>
    </edge>
    <edge id=":cluster_10824610463_1578496208_2155840709_8748689416_#4more_21" function="internal">
        <lane id=":cluster_10824610463_1578496208_2155840709_8748689416_#4more_21_0" index="0" disallow="pedestrian bicycle tram rail_urban rail rail_electric rail_fast ship" speed="13.89" length="21.81" shape="747.36,1484.89 755.28,1505.21"/>
    </edge>
    <edge id=":cluster_10824610463_1578496208_2155840709_8748689416_#4more_22" function="internal">
        <lane id=":cluster_10824610463_1578496208_2155840709_8748689416_#4more_22_0" index="0" disallow="pedestrian bicycle tram rail_urban rail rail_electric rail_fast ship" speed="8.92" length="5.47" shape="747.36,1484.89 748.10,1489.07 747.73,1490.24"/>
    </edge>
    <edge id=":cluster_10824610463_1578496208_2155840709_8748689416_#4more_23" function="internal">
        <lane id=":cluster_10824610463_1578496208_2155840709_8748689416_#4more_23_0" index="0" disallow="pedestrian bicycle tram rail_urban rail rail_electric rail_fast ship" speed="3.65" length="2.34" shape="747.36,1484.89 747.08,1486.30 746.49,1486.98"/>
    </edge>
    <edge id=":cluster_10824610463_1578496208_2155840709_8748689416_#4more_35" function="internal">
        <lane id=":cluster_10824610463_1578496208_2155840709_8748689416_#4more_35_0" index="0" allow="bicycle" speed="9.72" length="4.02" width="1.00" shape="757.65,1498.71 758.87,1502.54"/>
    </edge>
    <edge id=":cluster_10824610463_1578496208_2155840709_8748689416_#4more_36" function="internal">
        <lane id=":cluster_10824610463_1578496208_2155840709_8748689416_#4more_36_0" index="0" allow="bicycle" speed="10.19" length="12.07" width="1.25" shape="749.89,1495.91 746.52,1500.22 740.75,1503.43"/>
    </edge>
    <edge id=":cluster_10824610463_1578496208_2155840709_8748689416_#4more_37" function="internal">
        <lane id=":cluster_10824610463_1578496208_2155840709_8748689416_#4more_37_0" index="0" disallow="pedestrian bicycle tram rail_urban rail rail_electric rail_fast ship" speed="8.92" length="12.33" shape="747.73,1490.24 746.97,1492.69 743.96,1495.75 739.09,1498.26"/>
    </edge>
    <edge id=":cluster_10824610463_1578496208_2155840709_8748689416_#4more_38" function="internal">
        <lane id=":cluster_10824610463_1578496208_2155840709_8748689416_#4more_38_0" index="0" disallow="pedestrian bicycle tram rail_urban rail rail_electric rail_fast ship" speed="3.65" length="2.34" shape="746.49,1486.98 745.60,1486.91 744.40,1486.10"/>
    </edge>
    <edge id=":cluster_10824610463_1578496208_2155840709_8748689416_#4more_c0" function="crossing" crossingEdges="134929396#0">
        <lane id=":cluster_10824610463_1578496208_2155840709_8748689416_#4more_c0_0" index="0" allow="pedestrian" speed="1.00" length="1.00" width="4.00" shape="758.96,1500.48 757.98,1500.68"/>
    </edge>
    <edge id=":cluster_10824610463_1578496208_2155840709_8748689416_#4more_c1" function="crossing" crossingEdges="376401312#3">
        <lane id=":cluster_10824610463_1578496208_2155840709_8748689416_#4more_c1_0" index="0" allow="pedestrian" speed="1.00" length="4.45" width="4.00" shape="760.49,1491.81 762.08,1495.97"/>
    </edge>
    <edge id=":cluster_10824610463_1578496208_2155840709_8748689416_#4more_c2" function="crossing" crossingEdges="-51476080#6 51476080#6">
        <lane id=":cluster_10824610463_1578496208_2155840709_8748689416_#4more_c2_0" index="0" allow="pedestrian" speed="1.00" length="8.90" width="4.00" shape="742.46,1489.04 750.71,1485.70"/>
    </edge>
    <edge id=":cluster_10824610463_1578496208_2155840709_8748689416_#4more_c3" function="crossing" crossingEdges="149935566#1">
        <lane id=":cluster_10824610463_1578496208_2155840709_8748689416_#4more_c3_0" index="0" allow="pedestrian" speed="1.00" length="7.66" width="4.00" shape="742.84,1503.30 740.38,1496.05"/>
    </edge>
    <edge id=":cluster_10824610463_1578496208_2155840709_8748689416_#4more_c4" function="crossing" crossingEdges="1039998493">
        <lane id=":cluster_10824610463_1578496208_2155840709_8748689416_#4more_c4_0" index="0" allow="pedestrian" speed="1.00" length="1.00" width="4.00" shape="747.71,1506.15 746.78,1506.52"/>
    </edge>
    <edge id=":cluster_10824610463_1578496208_2155840709_8748689416_#4more_c5" function="crossing" crossingEdges="51508352#1 -51508352#1">
        <lane id=":cluster_10824610463_1578496208_2155840709_8748689416_#4more_c5_0" index="0" allow="pedestrian" speed="1.00" length="6.40" width="4.00" shape="756.01,1502.75 750.08,1505.17"/>
    </edge>
    <edge id=":cluster_10824610463_1578496208_2155840709_8748689416_#4more_w0" function="walkingarea">
        <lane id=":cluster_10824610463_1578496208_2155840709_8748689416_#4more_w0_0" index="0" allow="pedestrian" speed="1.00" length="2.82" width="4.00" shape="759.36,1502.44 761.32,1502.04 762.02,1500.16 761.26,1498.31 760.84,1497.56 760.33,1497.78 759.85,1498.61 759.47,1499.82 759.29,1501.17"/>
    </edge>
    <edge id=":cluster_10824610463_1578496208_2155840709_8748689416_#4more_w1" function="walkingarea">
        <lane id=":cluster_10824610463_1578496208_2155840709_8748689416_#4more_w1_0" index="0" allow="pedestrian" speed="1.00" length="1.84" width="4.00" shape="761.31,1498.16 763.18,1497.45 763.95,1495.25 760.21,1496.68"/>
    </edge>
    <edge id=":cluster_10824610463_1578496208_2155840709_8748689416_#4more_w2" function="walkingarea">
        <lane id=":cluster_10824610463_1578496208_2155840709_8748689416_#4more_w2_0" index="0" allow="pedestrian" speed="1.00" length="4.18" width="4.00" shape="758.62,1492.52 762.36,1491.10 761.29,1488.29 759.02,1486.60 757.15,1487.32"/>
    </edge>
    <edge id=":cluster_10824610463_1578496208_2155840709_8748689416_#4more_w3" function="walkingarea">
        <lane id=":cluster_10824610463_1578496208_2155840709_8748689416_#4more_w3_0" index="0" allow="pedestrian" speed="1.00" length="4.87" width="4.00" shape="756.97,1487.25 756.33,1485.35 752.80,1482.72 749.99,1483.77 751.46,1487.56"/>
    </edge>
    <edge id=":cluster_10824610463_1578496208_2155840709_8748689416_#4more_w4" function="walkingarea">
        <lane id=":cluster_10824610463_1578496208_2155840709_8748689416_#4more_w4_0" index="0" allow="pedestrian" speed="1.00" length="5.18" width="4.00" shape="741.78,1487.22 738.97,1488.27 740.80,1487.57 738.95,1488.33 737.02,1492.05 737.76,1493.91 738.49,1496.69 740.27,1495.86 741.53,1494.68 742.31,1493.22 742.61,1491.48 742.43,1489.46"/>
    </edge>
    <edge id=":cluster_10824610463_1578496208_2155840709_8748689416_#4more_w5" function="walkingarea">
        <lane id=":cluster_10824610463_1578496208_2155840709_8748689416_#4more_w5_0" index="0" allow="pedestrian" speed="1.00" length="4.63" width="4.00" shape="740.94,1503.94 741.42,1505.52 742.03,1507.43 745.66,1509.13 747.52,1508.39 746.67,1506.60 745.73,1505.24 744.69,1504.31 743.55,1503.79 742.31,1503.69"/>
    </edge>
    <edge id=":cluster_10824610463_1578496208_2155840709_8748689416_#4more_w6" function="walkingarea">
        <lane id=":cluster_10824610463_1578496208_2155840709_8748689416_#4more_w6_0" index="0" allow="pedestrian" speed="1.00" length="2.86" width="4.00" shape="757.59,1498.72 758.38,1502.64 756.76,1504.60 755.25,1500.90"/>
    </edge>
    <edge id=":cluster_10824610463_1578496208_2155840709_8748689416_#4more_w7" function="walkingarea">