<?xml version="1.0" encoding="UTF-8"?>

<!-- generated on 2025-12-10 10:53:16 by Eclipse SUMO GUI Version 1.18.0
<configuration xmlns:xsi="http://www.w3.org/2001/XMLSchema-instance" xsi:noNamespaceSchemaLocation="http://sumo.dlr.de/xsd/sumoConfiguration.xsd">

    <input>
        <net-file value="C:\Users\patma\mario_ws\FTO-Sim\simulation_examples\Spatial-Visibility_Ilic-TRB-2025\Ilic-2025_network.net.xml"/>
        <route-files value="C:\Users\patma\mario_ws\FTO-Sim\simulation_examples\Spatial-Visibility_Ilic-TRB-2025\Ilic-2025_demand-low.rou.xml"/>
        <additional-files value="C:\Users\patma\mario_ws\FTO-Sim\simulation_examples\Spatial-Visibility_Ilic-TRB-2025\Ilic-2025_parkinglots.add.xml"/>
    </input>

    <time>
        <begin value="0"/>
        <end value="270"/>
        <step-length value="0.1"/>
    </time>

    <processing>
        <ignore-route-errors value="true"/>
    </processing>

    <routing>
        <device.rerouting.adaptation-steps value="18"/>
        <device.rerouting.adaptation-interval value="10"/>
    </routing>

    <report>
        <verbose value="true"/>
        <duration-log.statistics value="true"/>
        <no-step-log value="true"/>
    </report>

</configuration>
-->

<SSMLog>
    <conflict begin="34.40" end="47.80" ego="flow_15.0" foe="flow_4.2">
        <minTTC time="NA" position="NA" type="NA" value="NA" speed="NA"/>
        <maxDRAC time="36.20" position="756.27,1495.13" type="10" value="3.28" speed="5.19"/>
        <PET time="44.57" position="756.27,1495.13" type="17" value="3.22" speed="5.20"/>
        <minPPET time="34.50" position="755.50,1494.41" type="11" value="1.44" speed="5.22"/>
        <maxMDRAC time="NA" position="NA" type="NA" value="NA" speed="NA"/>
    </conflict>
    <conflict begin="19.80" end="58.20" ego="flow_16.0" foe="flow_16.1">
        <minTTC time="27.90" position="748.37,1481.24" type="3" value="1.63" speed="0.00"/>
        <maxDRAC time="27.00" position="748.37,1481.24" type="3" value="1.45" speed="0.00"/>
        <PET time="NA" position="NA" type="NA" value="NA" speed="NA"/>
        <minPPET time="NA" position="NA" type="NA" value="NA" speed="NA"/>
        <maxMDRAC time="27.10" position="748.37,1481.24" type="3" value="3.16" speed="0.00"/>
    </conflict>
    <conflict begin="27.90" end="39.40" ego="flow_16.0" foe="flow_0.1">
        <minTTC time="NA" position="NA" type="NA" value="NA" speed="NA"/>
        <maxDRAC time="29.90" position="749.46,1496.46" type="11" value="0.03" speed="0.90"/>
        <PET time="34.79" position="749.46,1496.46" type="17" value="0.98" speed="5.64"/>
        <minPPET time="33.80" position="749.46,1496.46" type="13" value="1.15" speed="3.71"/>
        <maxMDRAC time="NA" position="NA" type="NA" value="NA" speed="NA"/>
    </conflict>
    <globalMeasures ego="flow_16.0">
        <timeSpan values="1.00 1.10 1.20 1.30 1.40 1.50 1.60 1.70 1.80 1.90 2.00 2.10 2.20 2.30 2.40 2.50 2.60 2.70 2.80 2.90 3.00 3.10 3.20 3.30 3.40 3.50 3.60 3.70 3.80 3.90 4.00 4.10 4.20 4.30 4.40 4.50 4.60 4.70 4.80 4.90 5.00 5.10 5.20 5.30 5.40 5.50 5.60 5.70 5.80 5.90 6.00 6.10 6.20 6.30 6.40 6.50 6.60 6.70 6.80 6.90 7.00 7.10 7.20 7.30 7.40 7.50 7.60 7.70 7.80 7.90 8.00 8.10 8.20 8.30 8.40 8.50 8.60 8.70 8.80 8.90 9.00 9.10 9.20 9.30 9.40 9.50 9.60 9.70 9.80 9.90 10.00 10.10 10.20 10.30 10.40 10.50 10.60 10.70 10.80 10.90 11.00 11.10 11.20 11.30 11.40 11.50 11.60 11.70 11.80 11.90 12.00 12.10 12.20 12.30 12.40 12.50 12.60 12.70 12.80 12.90 13.00 13.10 13.20 13.30 13.40 13.50 13.60 13.70 13.80 13.90 14.00 14.10 14.20 14.30 14.40 14.50 14.60 14.70 14.80 14.90 15.00 15.10 15.20 15.30 15.40 15.50 15.60 15.70 15.80 15.90 16.00 16.10 16.20 16.30 16.40 16.50 16.60 16.70 16.80 16.90 17.00 17.10 17.20 17.30 17.40 17.50 17.60 17.70 17.80 17.90 18.00 18.10 18.20 18.30 18.40 18.50 18.60 18.70 18.80 18.90 19.00 19.10 19.20 19.30 19.40 19.50 19.60 19.70 19.80 19.90 20.00 20.10 20.20 20.30 20.40 20.50 20.60 20.70 20.80 20.90 21.00 21.10 21.20 21.30 21.40 21.50 21.60 21.70 21.80 21.90 22.00 22.10 22.20 22.30 22.40 22.50 22.60 22.70 22.80 22.90 23.00 23.10 23.20 23.30 23.40 23.50 23.60 23.70 23.80 23.90 24.00 24.10 24.20 24.30 24.40 24.50 24.60 24.70 24.80 24.90 25.00 25.10 25.20 25.30 25.40 25.50 25.60 25.70 25.80 25.90 26.00 26.10 26.20 26.30 26.40 26.50 26.60 26.70 26.80 26.90 27.00 27.10 27.20 27.30 27.40 27.50 27.60 27.70 27.80 27.90 28.00 28.10 28.20 28.30 28.40 28.50 28.60 28.70 28.80 28.90 29.00 29.10 29.20 29.30 29.40 29.50 29.60 29.70 29.80 29.90 30.00 30.10 30.20 30.30 30.40 30.50 30.60 30.70 30.80 30.90 31.00 31.10 31.20 31.30 31.40 31.50 31.60 31.70 31.80 31.90 32.00 32.10 32.20 32.30 32.40 32.50 32.60 32.70 32.80 32.90 33.00 33.10 33.20 33.30 33.40 33.50 33.60 33.70 33.80 33.90 34.00 34.10 34.20 34.30 34.40 34.50 34.60 34.70 34.80 34.90 35.00 35.10 35.20 35.30 35.40 35.50 35.60 35.70 35.80 35.90 36.00 36.10 36.20 36.30 36.40 36.50 36.60 36.70 36.80 36.90 37.00 37.10 37.20 37.30 37.40 37.50 37.60 37.70 37.80 37.90 38.00 38.10 38.20 38.30 38.40 38.50 38.60 38.70 38.80 38.90 39.00 39.10 39.20 39.30 39.40 39.50 39.60 39.70 39.80 39.90 40.00 40.10 40.20 40.30 40.40 40.50 40.60 40.70 40.80 40.90 41.00 41.10 41.20 41.30 41.40 41.50 41.60 41.70 41.80 41.90 42.00 42.10 42.20 42.30 42.40 42.50 42.60 42.70 42.80 42.90 43.00 43.10 43.20 43.30 43.40 43.50 43.60 43.70 43.80 43.90 44.00 44.10 44.20 44.30 44.40 44.50 44.60 44.70 44.80 44.90 45.00 45.10 45.20 45.30 45.40 45.50 45.60 45.70 45.80 45.90 46.00 46.10 46.20 46.30 46.40 46.50 46.60 46.70 46.80 46.90 47.00 47.10 47.20 47.30 47.40 47.50 47.60 47.70 47.80 47.90 48.00 48.10 48.20 48.30 48.40 48.50 48.60 48.70 48.80 48.90 49.00 49.10 49.20 49.30 49.40 49.50 49.60 49.70 49.80 49.90 50.00 50.10 50.20 50.30 50.40 50.50 50.60 50.70 50.80 50.90 51.00 51.10 51.20 51.30 51.40 51.50 51.60 51.70 51.80 51.90 52.00 52.10 52.20 52.30 52.40 52.50 52.60 52.70 52.80 52.90 53.00 53.10 53.20 53.30 53.40 53.50 53.60 53.70 53.80 53.90 54.00 54.10 54.20 54.30 54.40 54.50 54.60 54.70 54.80 54.90 55.00 55.10 55.20 55.30 55.40 55.50 55.60 55.70 55.80 55.90 56.00 56.10 56.20 56.30 56.40 56.50 56.60 56.70 56.80 56.90 57.00 57.10 57.20 57.30 57.40 57.50 57.60 57.70 57.80 57.90 58.00 58.10 58.20"/>
        <BRSpan values="0.00 0.00 0.00 0.00 0.00 0.00 0.00 0.00 0.00 0.00 0.00 0.00 0.00 0.00 0.00 0.00 0.00 0.00 0.00 0.00 0.00 0.00 0.00 0.00 0.00 0.00 0.00 0.00 0.00 0.00 0.00 0.00 0.00 0.00 0.00 0.00 0.00 0.00 0.00 0.00 0.00 0.00 0.00 0.00 0.00 0.00 0.00 0.00 0.00 0.00 0.00 0.00 0.00 0.00 0.00 0.00 0.00 0.00 0.00 0.00 0.00 0.00 0.00 0.00 0.00 0.00 0.35 0.00 0.00 0.00 0.41 0.00 0.02 0.00 0.39 0.05 0.01 0.00 0.00 0.40 0.00 0.09 0.00 0.00 0.00 0.01 0.34 0.00 0.00 0.00 0.00 0.08 0.33 0.00 0.00 0.16 0.00 0.26 0.00 0.24 0.00 0.12 0.03 0.07 0.15 0.09 0.00 0.00 0.14 0.23 0.00 0.33 0.00 0.00 0.20 0.08 0.00 0.29 0.18 0.00 0.00 0.00 0.00 0.27 0.00 0.00 0.52 0.00 0.00 0.37 0.07 0.08 0.00 0.00 0.20 0.29 0.00 0.11 0.00 0.00 0.08 0.00 0.00 1.75 2.90 2.87 3.00 3.00 2.95 3.00 3.00 3.00 3.00 3.00 2.90 3.00 3.00 3.00 2.95 3.00 3.00 3.00 3.00 2.14 0.06 0.00 0.00 0.00 0.00 0.00 0.00 0.00 0.00 0.00 0.00 0.00 0.00 0.00 0.00 0.00 0.00 0.00 0.00 0.00 0.00 0.00 0.00 0.00 0.00 0.00 0.00 0.00 0.00 0.00 0.00 0.00 0.00 0.00 0.00 0.00 0.00 0.00 0.00 0.00 0.00 0.00 0.00 0.00 0.00 0.00 0.00 0.00 0.00 0.00 0.00 0.00 0.00 0.00 0.00 0.00 0.00 0.00 0.00 0.00 0.00 0.00 0.00 0.00 0.00 0.00 0.00 0.00 0.00 0.00 0.00 0.00 0.00 0.00 0.00 0.00 0.00 0.00 0.00 0.00 0.00 0.00 0.00 0.00 0.00 0.00 0.00 0.00 0.00 0.00 0.00 0.00 0.00 0.00 0.00 0.00 0.00 0.00 0.00 0.00 0.00 0.00 0.00 0.00 0.00 0.00 0.00 0.00 0.00 0.00 0.00 0.00 0.00 0.00 0.00 0.00 0.00 0.31 0.01 0.47 0.10 0.44 0.05 0.27 0.07 0.10 0.29 0.09 0.12 0.04 0.00 0.00 0.00 0.00 0.00 0.00 0.00 0.00 0.00 0.00 0.00 0.00 0.00 0.00 0.00 0.00 0.00 0.00 0.00 0.00 0.00 0.00 0.00 0.00 0.00 0.00 0.00 0.00 0.00 0.00 0.00 0.00 0.00 0.00 0.00 0.00 0.00 0.00 0.00 0.00 0.00 0.00 0.00 0.00 0.00 0.00 0.00 0.00 0.00 0.00 0.00 0.00 0.00 0.00 0.00 0.00 0.00 0.00 0.48 0.00 0.45 0.00 0.35 0.00 0.20 0.00 0.00 0.11 0.00 0.00 0.00 0.40 0.00 0.17 0.39 0.00 0.00 0.00 0.14 0.00 0.16 0.06 0.13 0.00 0.32 0.00 0.00 0.00 0.12 0.00 0.43 0.00 0.04 0.35 0.00 0.07 0.00 0.00 0.12 0.31 0.00 0.20 0.17 0.00 0.10 0.07 0.00 0.24 0.15 0.00 0.17 0.00 0.19 0.17 0.00 0.00 0.00 0.21 0.00 0.00 0.31 0.00 0.00 0.19 0.00 0.40 0.15 0.00 0.00 0.02 0.18 0.26 0.00 0.20 0.00 0.29 0.00 0.18 0.15 0.00 0.00 0.00 0.48 0.00 0.30 0.09 0.00 0.00 0.00 0.05 0.05 0.00 0.00 0.08 0.20 0.00 0.29 0.00 0.00 0.45 0.00 0.32 0.11 0.00 0.00 0.50 0.00 0.21 0.00 0.25 0.03 0.22 0.00 0.00 0.13 0.00 0.36 0.00 0.44 0.00 0.00 0.19 0.12 0.23 0.00 0.41 0.00 0.00 0.46 0.00 0.50 0.00 0.00 0.07 0.19 0.03 0.00 0.13 0.17 0.00 0.20 0.26 0.00 0.05 0.00 0.08 0.01 0.24 0.00 0.00 0.41 0.03 0.00 0.38 0.00 0.54 0.03 0.00 0.00 0.00 0.34 0.00 0.40 0.00 0.00 0.39 0.00 0.24 0.00 0.18 0.05 0.00 0.00 0.33 0.15 0.00 0.04 0.00 0.05 0.13 0.02 0.00 0.48 0.00 0.00 0.00 0.30 0.00 0.00 0.00 0.24 0.00 0.00 0.25 0.00 0.00 0.46 0.00 0.00 0.44 0.00 0.00 0.00 0.34 0.00 0.29 0.00 0.00 0.16 0.17 0.00 0.02 0.43 0.00 0.24 0.00 0.40 0.12 0.00"/>
        <maxBR time="16.70" position="748.93,1482.73" value="3.00"/>
        <SGAPSpan values="NA NA NA NA NA NA NA NA NA NA NA NA NA NA NA NA NA NA NA NA NA NA NA NA NA NA NA NA NA NA NA NA NA NA NA NA NA NA NA NA NA NA NA NA NA NA NA NA NA NA NA NA NA NA NA NA NA NA NA NA NA NA NA NA NA NA NA NA NA NA NA NA NA NA NA NA NA NA NA NA NA NA NA NA NA NA NA NA NA NA NA NA NA NA NA NA NA NA NA NA NA NA NA NA NA NA NA NA NA NA NA NA NA NA NA NA NA NA NA NA NA NA NA NA NA NA NA NA NA NA NA NA NA NA NA NA NA NA NA NA NA NA NA NA NA NA NA NA NA NA NA NA NA NA NA NA NA NA NA NA NA NA NA NA NA NA NA NA NA NA NA NA NA NA NA NA NA NA NA NA NA NA NA NA NA NA NA NA NA NA NA NA NA NA NA NA NA NA NA NA NA NA NA NA NA NA NA NA NA NA NA NA NA NA NA NA NA NA NA NA NA NA NA NA NA NA NA NA NA NA NA NA NA NA NA NA NA NA NA NA NA NA NA NA NA NA NA NA NA NA NA NA NA NA NA NA NA NA NA NA NA NA NA NA NA NA NA NA NA NA NA NA NA NA NA NA NA NA NA NA NA NA NA NA NA NA NA NA NA NA NA NA NA NA NA NA NA NA NA NA NA NA NA NA NA NA NA NA 0.83 1.41 NA NA NA NA NA NA NA NA NA NA NA NA NA NA NA NA 1.06 1.85 2.66 NA NA NA NA NA NA NA NA NA NA NA NA NA NA NA NA NA NA NA NA NA NA NA NA NA NA NA NA NA NA NA NA NA NA NA NA NA NA NA NA NA NA NA NA NA NA NA NA NA NA NA NA NA NA NA NA NA NA NA NA NA NA NA NA NA NA NA NA NA NA NA NA NA NA NA NA NA NA NA NA NA NA NA NA NA NA NA NA NA NA NA NA NA NA NA NA NA NA NA NA NA NA NA NA NA NA NA NA NA NA NA NA NA NA NA NA NA NA NA NA NA NA NA NA NA NA NA NA NA NA NA NA NA NA NA NA NA NA NA NA NA NA NA NA NA NA NA NA NA NA NA NA NA NA NA NA NA NA NA NA NA NA NA NA NA NA NA NA NA NA NA NA NA NA NA NA NA NA NA NA NA NA NA NA NA NA NA NA NA NA NA NA NA NA NA NA NA NA NA NA NA NA NA NA NA NA NA NA NA NA NA NA NA NA NA NA NA NA NA NA NA NA NA NA NA NA NA NA NA NA NA NA NA NA NA NA NA NA NA NA NA NA NA NA"/>
        <minSGAP time="31.80" position="750.05,1486.88" value="0.83" leader="flow_5.0"/>
        <TGAPSpan values="NA NA NA NA NA NA NA NA NA NA NA NA NA NA NA NA NA NA NA NA NA NA NA NA NA NA NA NA NA NA NA NA NA NA NA NA NA NA NA NA NA NA NA NA NA NA NA NA NA NA NA NA NA NA NA NA NA NA NA NA NA NA NA NA NA NA NA NA NA NA NA NA NA NA NA NA NA NA NA NA NA NA NA NA NA NA NA NA NA NA NA NA NA NA NA NA NA NA NA NA NA NA NA NA NA NA NA NA NA NA NA NA NA NA NA NA NA NA NA NA NA NA NA NA NA NA NA NA NA NA NA NA NA NA NA NA NA NA NA NA NA NA NA NA NA NA NA NA NA NA NA NA NA NA NA NA NA NA NA NA NA NA NA NA NA NA NA NA NA NA NA NA NA NA NA NA NA NA NA NA NA NA NA NA NA NA NA NA NA NA NA NA NA NA NA NA NA NA NA NA NA NA NA NA NA NA NA NA NA NA NA NA NA NA NA NA NA NA NA NA NA NA NA NA NA NA NA NA NA NA NA NA NA NA NA NA NA NA NA NA NA NA NA NA NA NA NA NA NA NA NA NA NA NA NA NA NA NA NA NA NA NA NA NA NA NA NA NA NA NA NA NA NA NA NA NA NA NA NA NA NA NA NA NA NA NA NA NA NA NA NA NA NA NA NA NA NA NA NA NA NA NA NA NA NA NA NA NA 0.44 0.72 NA NA NA NA NA NA NA NA NA NA NA NA NA NA NA NA 0.31 0.52 0.72 NA NA NA NA NA NA NA NA NA NA NA NA NA NA NA NA NA NA NA NA NA NA NA NA NA NA NA NA NA NA NA NA NA NA NA NA NA NA NA NA NA NA NA NA NA NA NA NA NA NA NA NA NA NA NA NA NA NA NA NA NA NA NA NA NA NA NA NA NA NA NA NA NA NA NA NA NA NA NA NA NA NA NA NA NA NA NA NA NA NA NA NA NA NA NA NA NA NA NA NA NA NA NA NA NA NA NA NA NA NA NA NA NA NA NA NA NA NA NA NA NA NA NA NA NA NA NA NA NA NA NA NA NA NA NA NA NA NA NA NA NA NA NA NA NA NA NA NA NA NA NA NA NA NA NA NA NA NA NA NA NA NA NA NA NA NA NA NA NA NA NA NA NA NA NA NA NA NA NA NA NA NA NA NA NA NA NA NA NA NA NA NA NA NA NA NA NA NA NA NA NA NA NA NA NA NA NA NA NA NA NA NA NA NA NA NA NA NA NA NA NA NA NA NA NA NA NA NA NA NA NA NA NA NA NA NA NA NA NA NA NA NA NA NA"/>
        <minTGAP time="33.60" position="750.66,1491.64" value="0.31" leader="flow_0.1"/>
    </globalMeasures>
    <conflict begin="19.80" end="58.20" ego="flow_16.1" foe="flow_16.0">
        <minTTC time="27.90" position="748.37,1481.24" type="2" value="1.63" speed="3.77"/>
        <maxDRAC time="27.00" position="748.37,1481.24" type="2" value="1.45" speed="5.43"/>
        <PET time="NA" position="NA" type="NA" value="NA" speed="NA"/>
        <minPPET time="NA" position="NA" type="NA" value="NA" speed="NA"/>
        <maxMDRAC time="27.10" position="748.37,1481.24" type="2" value="3.16" speed="5.27"/>
    </conflict>
    <conflict begin="35.70" end="61.30" ego="flow_16.2" foe="flow_15.1">
        <minTTC time="50.40" position="748.37,1481.24" type="2" value="2.59" speed="3.40"/>
        <maxDRAC time="49.00" position="748.37,1481.24" type="2" value="0.97" speed="5.35"/>
        <PET time="NA" position="NA" type="NA" value="NA" speed="NA"/>
        <minPPET time="NA" position="NA" type="NA" value="NA" speed="NA"/>
        <maxMDRAC time="49.00" position="748.37,1481.24" type="2" value="1.52" speed="5.35"/>
    </conflict>
    <globalMeasures ego="flow_16.1">
        <timeSpan values="13.10 13.20 13.30 13.40 13.50 13.60 13.70 13.80 13.90 14.00 14.10 14.20 14.30 14.40 14.50 14.60 14.70 14.80 14.90 15.00 15.10 15.20 15.30 15.40 15.50 15.60 15.70 15.80 15.90 16.00 16.10 16.20 16.30 16.40 16.50 16.60 16.70 16.80 16.90 17.00 17.10 17.20 17.30 17.40 17.50 17.60 17.70 17.80 17.90 18.00 18.10 18.20 18.30 18.40 18.50 18.60 18.70 18.80 18.90 19.00 19.10 19.20 19.30 19.40 19.50 19.60 19.70 19.80 19.90 20.00 20.10 20.20 20.30 20.40 20.50 20.60 20.70 20.80 20.90 21.00 21.10 21.20 21.30 21.40 21.50 21.60 21.70 21.80 21.90 22.00 22.10 22.20 22.30 22.40 22.50 22.60 22.70 22.80 22.90 23.00 23.10 23.20 23.30 23.40 23.50 23.60 23.70 23.80 23.90 24.00 24.10 24.20 24.30 24.40 24.50 24.60 24.70 24.80 24.90 25.00 25.10 25.20 25.30 25.40 25.50 25.60 25.70 25.80 25.90 26.00 26.10 26.20 26.30 26.40 26.50 26.60 26.70 26.80 26.90 27.00 27.10 27.20 27.30 27.40 27.50 27.60 27.70 27.80 27.90 28.00 28.10 28.20 28.30 28.40 28.50 28.60 28.70 28.80 28.90 29.00 29.10 29.20 29.30 29.40 29.50 29.60 29.70 29.80 29.90 30.00 30.10 30.20 30.30 30.40 30.50 30.60 30.70 30.80 30.90 31.00 31.10 31.20 31.30 31.40 31.50 31.60 31.70 31.80 31.90 32.00 32.10 32.20 32.30 32.40 32.50 32.60 32.70 32.80 32.90 33.00 33.10 33.20 33.30 33.40 33.50 33.60 33.70 33.80 33.90 34.00 34.10 34.20 34.30 34.40 34.50 34.60 34.70 34.80 34.90 35.00 35.10 35.20 35.30 35.40 35.50 35.60 35.70 35.80 35.90 36.00 36.10 36.20 36.30 36.40 36.50 36.60 36.70 36.80 36.90 37.00 37.10 37.20 37.30 37.40 37.50 37.60 37.70 37.80 37.90 38.00 38.10 38.20 38.30 38.40 38.50 38.60 38.70 38.80 38.90 39.00 39.10 39.20 39.30 39.40 39.50 39.60 39.70 39.80 39.90 40.00 40.10 40.20 40.30 40.40 40.50 40.60 40.70 40.80 40.90 41.00 41.10 41.20 41.30 41.40 41.50 41.60 41.70 41.80 41.90 42.00 42.10 42.20 42.30 42.40 42.50 42.60 42.70 42.80 42.90 43.00 43.10 43.20 43.30 43.40 43.50 43.60 43.70 43.80 43.90 44.00 44.10 44.20 44.30 44.40 44.50 44.60 44.70 44.80 44.90 45.00 45.10 45.20 45.30 45.40 45.50 45.60 45.70 45.80 45.90 46.00 46.10 46.20 46.30 46.40 46.50 46.60 46.70 46.80 46.90 47.00 47.10 47.20 47.30 47.40 47.50 47.60 47.70 47.80 47.90 48.00 48.10 48.20 48.30 48.40 48.50 48.60 48.70 48.80 48.90 49.00 49.10 49.20 49.30 49.40 49.50 49.60 49.70 49.80 49.90 50.00 50.10 50.20 50.30 50.40 50.50 50.60 50.70 50.80 50.90 51.00 51.10 51.20 51.30 51.40 51.50 51.60 51.70 51.80 51.90 52.00 52.10 52.20 52.30 52.40 52.50 52.60 52.70 52.80 52.90 53.00 53.10 53.20 53.30 53.40 53.50 53.60 53.70 53.80 53.90 54.00 54.10 54.20 54.30 54.40 54.50 54.60 54.70 54.80 54.90 55.00 55.10 55.20 55.30 55.40 55.50 55.60 55.70 55.80 55.90 56.00 56.10 56.20 56.30 56.40 56.50 56.60 56.70 56.80 56.90 57.00 57.10 57.20 57.30 57.40 57.50 57.60 57.70 57.80 57.90 58.00 58.10 58.20 58.30 58.40 58.50 58.60 58.70 58.80 58.90 59.00 59.10 59.20 59.30 59.40 59.50 59.60 59.70 59.80 59.90 60.00 60.10 60.20 60.30 60.40 60.50 60.60 60.70 60.80 60.90 61.00 61.10 61.20 61.30 61.40 61.50 61.60 61.70"/>
        <BRSpan values="0.00 0.00 0.00 0.00 0.00 0.00 0.00 0.00 0.00 0.00 0.00 0.00 0.00 0.00 0.00 0.00 0.00 0.00 0.00 0.00 0.00 0.00 0.00 0.00 0.00 0.00 0.00 0.00 0.00 0.00 0.00 0.00 0.00 0.00 0.00 0.00 0.00 0.00 0.00 0.00 0.00 0.00 0.00 0.00 0.00 0.00 0.00 0.00 0.00 0.00 0.00 0.00 0.00 0.00 0.00 0.00 0.00 0.00 0.00 0.00 0.00 0.00 0.40 0.00 0.26 0.23 0.00 0.00 0.34 0.00 0.40 0.00 0.00 0.02 0.00 0.00 0.42 0.00 0.03 0.25 0.00 0.00 0.11 0.00 0.00 0.00 0.46 0.00 0.00 0.07 0.00 0.00 0.18 0.01 0.09 0.00 0.28 0.00 0.00 0.00 0.37 0.00 0.00 0.00 0.00 0.18 0.00 0.00 0.20 0.00 0.00 0.29 0.00 0.00 0.00 0.00 0.52 0.00 0.09 0.00 0.07 0.25 0.00 0.29 0.00 0.38 0.00 0.01 0.07 0.04 0.00 0.31 0.00 0.20 0.12 0.00 0.10 0.00 0.41 0.15 1.61 2.32 1.81 1.65 2.21 1.92 1.72 1.59 1.85 1.62 1.55 1.70 1.26 1.29 1.65 0.67 1.41 0.50 1.23 0.60 0.26 0.84 0.74 0.96 0.65 1.01 0.27 1.14 0.53 0.61 0.43 0.73 0.58 0.33 0.41 0.36 0.19 0.25 0.00 0.00 0.00 0.00 0.00 0.00 0.00 0.00 0.00 0.00 0.00 0.00 0.00 0.00 0.00 0.00 0.00 0.00 0.00 0.00 0.00 0.00 0.00 0.00 0.00 0.00 0.00 0.00 0.00 0.00 0.00 0.00 0.00 0.00 0.00 0.00 0.00 0.00 0.00 0.00 0.00 0.00 0.00 0.00 0.00 0.00 0.00 0.00 0.00 0.00 0.00 0.00 0.00 0.00 0.74 0.00 0.00 0.58 0.00 0.00 0.23 0.17 0.00 0.00 0.06 0.00 0.00 0.22 0.24 0.00 0.14 0.00 0.23 0.00 0.24 0.29 0.00 0.00 0.26 0.00 0.01 0.24 0.13 0.00 0.00 0.10 0.22 0.00 0.00 0.00 0.00 0.03 0.00 0.00 0.39 0.00 0.00 0.29 0.05 0.00 0.18 0.01 0.21 0.00 0.00 0.25 0.00 0.22 0.00 0.13 0.00 0.28 0.00 0.37 0.04 0.02 0.15 0.00 0.00 0.35 0.00 0.01 0.00 0.00 0.11 0.00 0.00 0.01 0.51 0.00 0.27 0.00 0.00 0.01 0.07 0.00 0.08 0.00 0.00 0.00 0.31 0.00 0.52 0.05 0.00 0.00 0.22 0.00 0.00 0.10 0.37 0.00 0.00 0.06 0.12 0.26 0.00 0.05 0.00 0.08 0.39 0.00 0.28 0.00 0.25 0.00 0.36 0.08 0.02 0.00 0.00 0.00 0.17 0.20 0.06 0.00 0.00 0.10 0.00 0.56 0.00 0.06 0.08 0.00 0.15 0.06 0.00 0.21 0.32 0.00 0.00 0.00 0.00 0.00 0.02 0.00 0.13 0.00 0.28 0.00 0.40 0.00 0.00 0.43 0.00 0.00 0.30 0.12 0.00 0.05 0.00 0.34 0.00 0.19 0.08 0.00 0.11 0.29 0.00 0.07 0.33 0.00 0.04 0.00 0.00 0.17 0.22 0.00 0.23 0.03 0.01 0.00 0.00 0.23 0.05 0.02 0.00 0.00 0.21 0.05 0.02 0.03 0.00 0.25 0.00 0.37 0.00 0.00 0.26 0.00 0.19 0.18 0.00 0.48 0.00 0.09 0.35 0.09 0.00 0.14 0.21 0.10 0.00 0.06 0.16 0.00 0.06 0.26 0.00 0.00 0.00 0.36 0.00 0.15 0.30 0.00 0.00 0.13 0.21 0.00 0.00 0.12 0.25 0.00 0.15 0.29 0.00 0.13 0.00 0.09 0.24 0.11 0.00 0.00 0.23 0.00 0.00 0.19 0.36 0.00 0.29 0.16 0.02 0.00 0.06 0.00 0.10 0.26 0.00"/>
        <maxBR time="27.20" position="745.06,1472.69" value="2.32"/>
        <SGAPSpan values="52.16 52.76 53.33 53.90 54.46 55.01 55.55 56.07 56.59 57.10 57.59 58.09 58.57 59.05 59.51 59.96 60.40 60.83 61.26 61.67 62.08 62.48 62.86 63.19 63.49 63.75 63.97 64.15 64.29 64.40 64.46 64.49 64.48 64.43 64.33 64.20 64.03 63.81 63.56 63.27 62.94 62.56 62.16 61.75 61.33 60.91 60.47 60.02 59.57 59.11 58.63 58.15 57.66 57.17 56.66 56.15 55.62 55.09 54.55 54.01 53.46 52.91 52.37 51.82 51.27 50.72 50.17 49.62 49.08 48.53 47.98 47.44 46.89 46.34 45.79 45.24 44.70 44.15 43.60 43.06 42.51 41.96 41.41 40.86 40.31 39.76 39.22 38.67 38.12 37.57 37.02 36.48 35.93 35.38 34.84 34.29 33.74 33.20 32.65 32.10 31.56 31.01 30.46 29.92 29.37 28.82 28.27 27.72 27.17 26.62 26.08 25.53 24.98 24.43 23.88 23.33 22.79 22.24 21.69 21.14 20.59 20.05 19.50 18.95 18.40 17.86 17.31 16.76 16.22 15.67 15.12 14.57 14.02 13.48 12.93 12.38 11.83 11.28 10.74 10.20 9.67 9.17 8.68 8.21 7.76 7.33 6.92 6.53 6.15 5.80 5.48 5.19 4.92 4.67 4.45 4.24 4.06 3.89 3.75 3.61 3.48 3.35 NA NA NA NA NA NA NA NA NA NA NA NA NA NA NA NA NA NA NA NA NA NA NA NA NA NA NA 2.15 2.19 2.23 2.27 2.32 2.36 2.41 2.46 2.51 2.57 2.62 2.68 2.73 2.80 2.86 2.92 2.98 3.05 3.11 3.18 3.25 3.33 3.41 3.49 3.57 3.65 3.74 3.83 3.91 4.00 4.08 4.17 4.25 4.33 4.41 4.48 4.56 4.63 4.70 4.77 4.84 4.90 4.95 5.02 5.07 5.13 5.19 5.24 5.29 5.35 5.41 5.46 5.52 5.57 5.63 5.68 5.74 5.80 5.85 5.91 5.96 6.02 6.08 6.13 6.19 6.25 6.30 6.36 6.41 6.46 6.51 6.57 6.62 6.68 6.74 6.80 6.85 6.91 6.96 7.02 7.07 7.13 7.18 7.24 7.29 7.35 7.40 7.46 7.51 7.57 7.63 7.69 7.74 7.80 7.85 7.91 7.97 8.02 8.08 8.13 8.19 8.24 8.30 8.36 8.41 8.47 8.53 NA NA NA NA NA NA NA NA NA NA NA NA NA NA NA 9.41 9.47 9.53 9.59 9.64 9.70 9.75 9.81 9.86 9.92 9.98 10.03 10.09 10.15 10.20 10.26 10.31 10.37 10.42 10.48 10.53 10.58 10.64 10.70 10.75 10.80 10.86 10.91 10.97 11.03 11.08 11.14 11.19 11.25 11.31 11.37 11.43 11.48 11.54 11.59 11.65 11.71 11.77 11.82 11.88 11.93 11.99 12.04 12.10 12.15 12.20 12.26 12.31 12.37 12.42 12.48 12.53 NA NA NA NA NA NA NA NA NA NA NA NA NA NA NA NA NA NA NA NA NA 13.72 13.77 13.83 13.88 13.93 13.99 14.05 14.10 14.16 14.21 14.27 14.32 14.38 14.43 14.49 14.54 14.60 14.65 14.71 14.77 14.83 14.88 14.94 15.00 15.06 15.11 15.17 15.22 15.28 15.34 15.39 15.45 15.50 15.56 15.61 15.67 15.72 15.78 15.83 15.89 15.94 16.00 16.06 16.11 16.16 16.21 16.27 16.32 16.38 16.44 16.49 16.55 16.61 16.66 16.72 16.77 16.82 16.88 16.93 16.98 17.04 17.09 17.14 NA NA NA NA NA NA NA NA NA NA NA NA NA NA NA NA NA NA NA NA NA NA NA NA NA NA NA NA NA NA NA NA NA NA NA"/>
        <minSGAP time="32.00" position="749.12,1483.25" value="2.15" leader="flow_16.0"/>
        <TGAPSpan values="NA 442.20 234.20 156.17 119.75 98.75 82.78 72.30 65.05 60.35 56.08 52.11 48.88 45.22 42.60 39.54 37.48 35.77 34.11 32.88 31.75 30.64 29.32 28.12 27.31 26.29 25.64 24.77 24.19 23.26 22.74 22.18 21.31 20.49 19.84 19.12 18.48 18.02 17.41 17.00 16.39 15.84 15.46 15.00 14.64 14.31 13.83 13.43 13.08 12.80 12.38 12.07 11.82 11.50 11.25 10.94 10.62 10.35 10.10 9.91 9.76 9.64 9.61 9.41 9.36 9.29 9.17 9.02 8.98 8.84 8.81 8.68 8.56 8.46 8.33 8.23 8.19 8.05 7.96 7.90 7.75 7.65 7.56 7.46 7.33 7.22 7.18 7.05 6.95 6.86 6.75 6.65 6.57 6.47 6.38 6.26 6.19 6.08 5.97 5.84 5.78 5.69 5.57 5.47 5.34 5.26 5.15 5.04 4.96 4.85 4.75 4.68 4.58 4.44 4.34 4.24 4.18 4.06 3.97 3.84 3.75 3.66 3.55 3.47 3.35 3.27 3.17 3.07 2.97 2.87 2.75 2.67 2.55 2.46 2.37 2.26 2.16 2.06 1.97 1.88 1.83 1.82 1.79 1.75 1.73 1.71 1.68 1.65 1.63 1.61 1.59 1.58 1.56 1.54 1.55 1.52 1.53 1.50 1.51 1.49 1.45 1.45 NA NA NA NA NA NA NA NA NA NA NA NA NA NA NA NA NA NA NA NA NA NA NA NA NA NA NA 1.25 1.23 1.19 1.19 1.20 1.18 1.14 1.14 1.11 1.12 1.11 1.11 1.10 1.10 1.07 1.05 1.05 1.03 1.03 1.01 1.01 1.00 1.00 0.99 0.99 0.98 0.99 0.99 0.98 0.98 0.98 0.97 0.96 0.95 0.94 0.94 0.93 0.92 0.91 0.91 0.91 0.91 0.91 0.93 0.93 0.93 0.95 0.96 0.96 0.98 0.99 1.00 1.01 1.02 1.03 1.03 1.05 1.06 1.07 1.08 1.08 1.10 1.10 1.12 1.14 1.14 1.15 1.16 1.16 1.17 1.19 1.20 1.21 1.22 1.23 1.25 1.25 1.26 1.27 1.28 1.29 1.30 1.31 1.32 1.33 1.34 1.35 1.36 1.37 1.38 1.39 1.41 1.41 1.42 1.44 1.45 1.46 1.46 1.47 1.48 1.50 1.50 1.52 1.53 1.54 1.56 1.55 NA NA NA NA NA NA NA NA NA NA NA NA NA NA NA 1.72 1.73 1.74 1.75 1.76 1.77 1.78 1.80 1.79 1.82 1.83 1.83 1.84 1.86 1.86 1.86 1.88 1.90 1.91 1.90 1.92 1.93 1.95 1.95 1.97 1.96 1.98 2.00 2.00 2.02 2.02 2.04 2.04 2.06 2.07 2.09 2.09 2.09 2.10 2.12 2.13 2.15 2.15 2.16 2.18 2.17 2.20 2.20 2.21 2.22 2.22 2.24 2.25 2.25 2.27 2.29 2.30 NA NA NA NA NA NA NA NA NA NA NA NA NA NA NA NA NA NA NA NA NA 2.51 2.50 2.52 2.54 2.54 2.55 2.58 2.57 2.58 2.61 2.60 2.62 2.62 2.63 2.64 2.66 2.66 2.68 2.69 2.70 2.71 2.71 2.73 2.75 2.76 2.76 2.77 2.79 2.80 2.81 2.82 2.82 2.84 2.83 2.86 2.86 2.86 2.88 2.88 2.90 2.92 2.91 2.95 2.92 2.94 2.97 2.98 2.97 2.99 3.01 3.03 3.01 3.03 3.05 3.04 3.05 3.08 3.07 3.08 3.09 3.12 3.11 3.13 NA NA NA NA NA NA NA NA NA NA NA NA NA NA NA NA NA NA NA NA NA NA NA NA NA NA NA NA NA NA NA NA NA NA NA"/>
        <minTGAP time="36.20" position="748.91,1497.16" value="0.91" leader="flow_16.0"/>
    </globalMeasures>
    <conflict begin="35.70" end="63.20" ego="flow_16.2" foe="flow_15.2">
        <minTTC time="52.30" position="747.44,1478.76" type="2" value="1.68" speed="1.32"/>
        <maxDRAC time="50.60" position="747.20,1478.12" type="2" value="0.57" speed="3.15"/>
        <PET time="NA" position="NA" type="NA" value="NA" speed="NA"/>
        <minPPET time="NA" position="NA" type="NA" value="NA" speed="NA"/>
        <maxMDRAC time="51.40" position="747.36,1478.54" type="2" value="1.14" speed="2.19"/>
    </conflict>
    <globalMeasures ego="flow_15.0">
        <timeSpan values="21.50 21.60 21.70 21.80 21.90 22.00 22.10 22.20 22.30 22.40 22.50 22.60 22.70 22.80 22.90 23.00 23.10 23.20 23.30 23.40 23.50 23.60 23.70 23.80 23.90 24.00 24.10 24.20 24.30 24.40 24.50 24.60 24.70 24.80 24.90 25.00 25.10 25.20 25.30 25.40 25.50 25.60 25.70 25.80 25.90 26.00 26.10 26.20 26.30 26.40 26.50 26.60 26.70 26.80 26.90 27.00 27.10 27.20 27.30 27.40 27.50 27.60 27.70 27.80 27.90 28.00 28.10 28.20 28.30 28.40 28.50 28.60 28.70 28.80 28.90 29.00 29.10 29.20 29.30 29.40 29.50 29.60 29.70 29.80 29.90 30.00 30.10 30.20 30.30 30.40 30.50 30.60 30.70 30.80 30.90 31.00 31.10 31.20 31.30 31.40 31.50 31.60 31.70 31.80 31.90 32.00 32.10 32.20 32.30 32.40 32.50 32.60 32.70 32.80 32.90 33.00 33.10 33.20 33.30 33.40 33.50 33.60 33.70 33.80 33.90 34.00 34.10 34.20 34.30 34.40 34.50 34.60 34.70 34.80 34.90 35.00 35.10 35.20 35.30 35.40 35.50 35.60 35.70 35.80 35.90 36.00 36.10 36.20 36.30 36.40 36.50 36.60 36.70 36.80 36.90 37.00 37.10 37.20 37.30 37.40 37.50 37.60 37.70 37.80 37.90 38.00 38.10 38.20 38.30 38.40 38.50 38.60 38.70 38.80 38.90 39.00 39.10 39.20 39.30 39.40 39.50 39.60 39.70 39.80 39.90 40.00 40.10 40.20 40.30 40.40 40.50 40.60 40.70 40.80 40.90 41.00 41.10 41.20 41.30 41.40 41.50 41.60 41.70 41.80 41.90 42.00 42.10 42.20 42.30 42.40 42.50 42.60 42.70 42.80 42.90 43.00 43.10 43.20 43.30 43.40 43.50 43.60 43.70 43.80 43.90 44.00 44.10 44.20 44.30 44.40 44.50 44.60 44.70 44.80 44.90 45.00 45.10 45.20 45.30 45.40 45.50 45.60 45.70 45.80 45.90 46.00 46.10 46.20 46.30 46.40 46.50 46.60 46.70 46.80 46.90 47.00 47.10 47.20 47.30 47.40 47.50 47.60 47.70 47.80 47.90 48.00 48.10 48.20 48.30 48.40 48.50 48.60 48.70 48.80 48.90 49.00 49.10 49.20 49.30 49.40 49.50 49.60 49.70 49.80 49.90 50.00 50.10 50.20 50.30 50.40 50.50 50.60 50.70 50.80 50.90 51.00 51.10 51.20 51.30 51.40 51.50 51.60 51.70 51.80 51.90 52.00 52.10 52.20 52.30 52.40 52.50 52.60 52.70 52.80 52.90 53.00 53.10 53.20 53.30 53.40 53.50 53.60 53.70 53.80 53.90 54.00 54.10 54.20 54.30 54.40 54.50 54.60 54.70 54.80 54.90 55.00 55.10 55.20 55.30 55.40 55.50 55.60 55.70 55.80 55.90 56.00 56.10 56.20 56.30 56.40 56.50 56.60 56.70 56.80 56.90 57.00 57.10 57.20 57.30 57.40 57.50 57.60 57.70 57.80 57.90 58.00 58.10 58.20 58.30 58.40 58.50 58.60 58.70 58.80 58.90 59.00 59.10 59.20 59.30 59.40 59.50 59.60 59.70 59.80 59.90 60.00 60.10 60.20 60.30 60.40 60.50 60.60 60.70 60.80 60.90 61.00 61.10 61.20 61.30 61.40 61.50 61.60 61.70 61.80 61.90 62.00 62.10 62.20 62.30 62.40 62.50 62.60 62.70 62.80 62.90 63.00 63.10 63.20 63.30 63.40 63.50 63.60 63.70 63.80 63.90 64.00 64.10 64.20 64.30 64.40 64.50 64.60 64.70 64.80 64.90 65.00 65.10 65.20 65.30 65.40 65.50"/>
        <BRSpan values="0.00 0.00 0.00 0.00 0.00 0.00 0.00 0.00 0.00 0.00 0.00 0.00 0.00 0.00 0.00 0.00 0.00 0.00 0.00 0.00 0.00 0.00 0.00 0.00 0.00 0.00 0.00 0.00 0.00 0.00 0.00 0.00 0.00 0.00 0.00 0.00 0.00 0.00 0.00 0.00 0.00 0.00 0.00 0.00 0.00 0.00 0.00 0.00 0.00 0.00 0.00 0.00 0.00 0.00 0.00 0.00 0.12 0.02 0.00 0.32 0.00 0.01 0.00 0.01 0.00 0.50 0.00 0.05 0.05 0.27 0.00 0.07 0.30 0.01 0.00 0.29 0.00 0.22 0.00 0.36 0.08 0.00 0.01 0.00 0.00 0.01 0.09 0.43 0.00 0.00 0.22 0.00 0.36 0.00 0.00 0.11 0.17 0.00 0.00 0.36 0.00 0.00 0.22 0.00 0.12 0.19 0.00 0.11 0.00 0.04 0.00 0.33 0.08 0.00 0.11 0.00 0.11 0.00 0.00 0.38 0.08 0.00 0.31 0.00 0.49 0.00 0.36 0.00 0.00 0.55 0.00 0.17 0.00 0.02 0.00 0.40 0.11 0.00 0.49 0.00 0.00 0.04 0.39 0.00 0.00 0.14 0.16 0.00 0.00 0.29 0.00 0.20 0.00 0.46 0.00 0.08 0.17 0.00 0.00 0.10 0.13 0.00 0.30 0.12 0.00 0.38 0.01 0.00 0.00 0.25 0.00 0.19 0.00 0.30 0.00 0.00 0.19 0.17 0.00 0.00 0.07 0.00 0.10 0.30 0.00 0.05 0.00 0.40 0.00 0.00 0.15 0.05 0.00 0.31 0.00 0.13 0.00 0.00 0.00 0.00 0.24 0.06 0.00 0.29 0.00 0.15 0.00 0.09 0.29 0.00 0.41 0.00 0.00 0.07 0.00 0.49 0.00 0.00 0.45 0.06 0.00 0.22 0.00 0.00 0.00 0.02 0.06 0.10 0.00 0.00 0.44 0.00 0.14 0.15 0.00 0.30 0.15 0.00 0.08 0.00 0.17 0.25 0.00 0.00 0.43 0.00 0.26 0.00 0.01 0.03 0.10 0.21 0.00 0.00 0.24 0.26 0.00 0.00 0.19 0.00 0.08 0.00 0.00 0.39 0.00 0.36 0.00 0.28 0.00 0.06 0.00 0.36 0.00 0.00 0.03 0.00 0.10 0.01 0.00 0.14 0.00 0.21 0.07 0.00 0.08 0.25 0.00 0.12 0.00 0.37 0.00 0.00 0.49 0.00 0.00 0.00 0.38 0.00 0.03 0.10 0.05 0.20 0.00 0.06 0.23 0.07 0.14 0.00 0.00 0.29 0.00 0.00 0.10 0.18 0.00 0.25 0.00 0.00 0.37 0.00 0.10 0.00 0.00 0.00 0.07 0.44 0.00 0.39 0.00 0.00 0.13 0.00 0.05 0.28 0.00 0.15 0.00 0.13 0.00 0.22 0.04 0.00 0.00 0.48 0.07 0.00 0.00 0.00 0.29 0.00 0.00 0.23 0.29 0.00 0.00 0.00 0.11 0.00 0.08 0.02 0.00 0.24 0.21 0.00 0.17 0.00 0.00 0.05 0.04 0.15 0.00 0.07 0.00 0.18 0.33 0.00 0.30 0.00 0.00 0.39 0.00 0.18 0.10 0.00 0.18 0.00 0.00 0.54 0.00 0.34 0.00 0.00 0.00 0.00 0.14 0.00 0.26 0.00 0.00 0.50 0.00 0.39 0.00 0.20 0.04 0.00 0.00 0.00 0.43 0.00 0.04 0.29 0.00 0.41 0.00 0.00 0.00 0.40 0.00 0.00 0.40 0.00 0.17 0.00 0.22 0.00 0.30 0.00 0.00 0.20 0.00 0.01 0.13 0.21 0.00 0.02 0.00 0.00 0.00 0.48 0.00"/>
        <maxBR time="34.40" position="742.07,1465.11" value="0.55"/>