<?xml version="1.0" encoding="UTF-8"?>

<!-- generated on 2025-12-03 16:06:05 by Eclipse SUMO libsumo Version 1.20.0
<configuration xmlns:xsi="http://www.w3.org/2001/XMLSchema-instance" xsi:noNamespaceSchemaLocation="http://sumo.dlr.de/xsd/libsumoConfiguration.xsd">

    <input>
        <net-file value="c:\Users\patma\mario_ws\FTO-Sim\simulation_examples\Spatial-Visibility_Ilic-TRB-2025\Ilic-2025_network.net.xml"/>
        <route-files value="c:\Users\patma\mario_ws\FTO-Sim\simulation_examples\Spatial-Visibility_Ilic-TRB-2025\Ilic-2025_demand-low.rou.xml"/>
        <additional-files value="c:\Users\patma\mario_ws\FTO-Sim\simulation_examples\Spatial-Visibility_Ilic-TRB-2025\Ilic-2025_parkinglots.add.xml"/>
    </input>

    <time>
        <begin value="0"/>
        <end value="270"/>
        <step-length value="0.1"/>
    </time>

    <processing>
        <ignore-route-errors value="true"/>
    </processing>

    <routing>
        <device.rerouting.adaptation-steps value="18"/>
        <device.rerouting.adaptation-interval value="10"/>
    </routing>

    <report>
        <verbose value="true"/>
        <no-warnings value="true"/>
        <message-log value="error"/>
        <duration-log.statistics value="true"/>
        <no-step-log value="true"/>
    </report>

    <random_number>
        <seed value="18"/>
    </random_number>

</configuration>
-->

<SSMLog>
    <conflict begin="20.30" end="35.50" ego="flow_14.0" foe="flow_5.0">
        <minTTC time="27.80" position="753.64,1498.52" type="11" value="4.17" speed="5.19"/>
        <maxDRAC time="26.80" position="753.64,1498.52" type="11" value="0.49" speed="5.14"/>
        <PET time="NA" position="NA" type="NA" value="NA" speed="NA"/>
        <minPPET time="27.20" position="753.64,1498.52" type="111" value="-1.88" speed="5.19"/>
        <maxMDRAC time="27.80" position="753.64,1498.52" type="11" value="0.82" speed="5.19"/>
    </conflict>
    <conflict begin="28.50" end="39.50" ego="flow_14.0" foe="flow_0.0">
        <minTTC time="28.70" position="750.65,1499.65" type="11" value="3.92" speed="5.14"/>
        <maxDRAC time="28.90" position="750.65,1499.65" type="11" value="0.46" speed="5.09"/>
        <PET time="NA" position="NA" type="NA" value="NA" speed="NA"/>
        <minPPET time="28.50" position="749.90,1500.21" type="111" value="-0.67" speed="5.18"/>
        <maxMDRAC time="28.80" position="749.90,1500.21" type="10" value="1.79" speed="5.17"/>
    </conflict>
    <globalMeasures ego="flow_10.0">
        <timeSpan values="21.10 21.20 21.30 21.40 21.50 21.60 21.70 21.80 21.90 22.00 22.10 22.20 22.30 22.40 22.50 22.60 22.70 22.80 22.90 23.00 23.10 23.20 23.30 23.40 23.50 23.60 23.70 23.80 23.90 24.00 24.10 24.20 24.30 24.40 24.50 24.60 24.70 24.80 24.90 25.00 25.10 25.20 25.30 25.40 25.50 25.60 25.70 25.80 25.90 26.00 26.10 26.20 26.30 26.40 26.50 26.60 26.70 26.80 26.90 27.00 27.10 27.20 27.30 27.40 27.50 27.60 27.70 27.80 27.90 28.00 28.10 28.20 28.30 28.40 28.50 28.60 28.70 28.80 28.90 29.00 29.10 29.20 29.30 29.40 29.50 29.60 29.70 29.80 29.90 30.00 30.10 30.20 30.30 30.40 30.50 30.60 30.70 30.80 30.90 31.00 31.10 31.20 31.30 31.40 31.50 31.60 31.70 31.80 31.90 32.00 32.10 32.20 32.30 32.40 32.50 32.60 32.70 32.80 32.90 33.00 33.10 33.20 33.30 33.40 33.50 33.60 33.70 33.80 33.90 34.00 34.10 34.20 34.30 34.40 34.50 34.60 34.70 34.80 34.90 35.00 35.10 35.20 35.30 35.40 35.50 35.60 35.70 35.80 35.90 36.00 36.10 36.20 36.30 36.40 36.50 36.60 36.70 36.80 36.90 37.00 37.10 37.20 37.30 37.40 37.50 37.60 37.70 37.80 37.90 38.00 38.10 38.20 38.30 38.40 38.50 38.60 38.70 38.80 38.90 39.00 39.10 39.20 39.30 39.40 39.50 39.60 39.70 39.80 39.90 40.00 40.10 40.20 40.30 40.40 40.50 40.60 40.70 40.80 40.90 41.00 41.10 41.20 41.30 41.40 41.50 41.60 41.70 41.80 41.90 42.00 42.10 42.20 42.30 42.40 42.50 42.60 42.70 42.80 42.90 43.00 43.10 43.20 43.30 43.40 43.50 43.60 43.70 43.80 43.90 44.00 44.10 44.20 44.30 44.40 44.50 44.60 44.70 44.80 44.90 45.00 45.10 45.20 45.30 45.40 45.50 45.60 45.70 45.80 45.90 46.00 46.10 46.20 46.30 46.40 46.50 46.60 46.70 46.80 46.90 47.00 47.10 47.20 47.30 47.40 47.50 47.60 47.70 47.80 47.90 48.00 48.10 48.20 48.30 48.40 48.50 48.60 48.70 48.80 48.90 49.00 49.10 49.20 49.30 49.40 49.50 49.60 49.70 49.80 49.90 50.00 50.10 50.20 50.30 50.40 50.50 50.60 50.70 50.80 50.90 51.00 51.10 51.20 51.30 51.40 51.50 51.60 51.70 51.80 51.90 52.00 52.10 52.20 52.30 52.40 52.50 52.60 52.70 52.80 52.90 53.00 53.10 53.20 53.30 53.40 53.50 53.60 53.70 53.80 53.90 54.00 54.10 54.20 54.30 54.40 54.50 54.60 54.70 54.80 54.90 55.00 55.10 55.20 55.30 55.40 55.50 55.60 55.70 55.80 55.90 56.00 56.10 56.20 56.30 56.40 56.50 56.60 56.70 56.80 56.90 57.00 57.10 57.20 57.30 57.40 57.50 57.60 57.70 57.80 57.90 58.00 58.10 58.20 58.30 58.40 58.50 58.60 58.70 58.80 58.90 59.00 59.10 59.20 59.30 59.40 59.50 59.60 59.70 59.80 59.90 60.00 60.10 60.20 60.30 60.40 60.50 60.60 60.70 60.80 60.90 61.00 61.10 61.20 61.30 61.40 61.50 61.60 61.70 61.80 61.90 62.00 62.10 62.20 62.30 62.40 62.50 62.60 62.70 62.80 62.90"/>
        <BRSpan values="0.00 0.00 0.00 0.00 0.00 0.00 0.00 0.00 0.00 0.00 0.00 0.00 0.00 0.00 0.00 0.00 0.00 0.00 0.00 0.00 0.00 0.00 0.00 0.00 0.00 0.00 0.00 0.00 0.00 0.00 0.00 0.00 0.00 0.00 0.00 0.00 0.00 0.00 0.00 0.00 0.00 0.00 0.00 0.00 0.00 0.00 0.00 0.00 0.00 0.00 0.00 0.00 0.00 0.00 0.00 0.00 0.00 0.00 0.00 0.00 0.00 0.00 0.00 0.00 0.00 0.00 0.00 0.00 0.00 0.00 0.00 0.00 0.00 0.00 0.00 0.11 0.00 0.12 0.09 0.00 0.00 0.15 0.10 0.00 0.46 0.07 0.00 0.26 0.00 0.00 0.40 0.00 0.21 0.07 0.00 0.00 0.24 0.00 0.00 0.41 0.00 0.00 0.00 0.24 0.00 0.19 0.17 0.00 0.31 0.00 0.00 0.05 0.34 0.00 0.08 0.48 0.00 0.23 0.00 0.00 0.01 0.00 0.21 0.18 0.00 0.00 0.02 0.00 0.20 0.00 0.00 0.12 0.22 0.00 0.08 0.00 0.46 0.00 0.07 0.00 0.18 0.00 0.00 0.07 0.30 0.00 0.23 0.00 0.00 0.21 0.05 0.00 0.00 0.04 0.00 0.00 0.40 0.00 0.14 0.00 0.00 0.42 0.02 0.00 0.00 0.10 0.14 0.00 0.12 0.00 0.06 0.00 0.46 0.05 0.00 0.00 0.43 0.00 0.00 0.47 0.00 0.00 0.30 0.00 0.00 0.00 0.04 0.28 0.00 0.00 0.49 0.00 0.17 0.00 0.32 0.04 0.00 0.00 0.30 0.02 0.00 0.00 1.75 2.86 3.00 3.00 2.80 3.00 0.00 0.00 0.00 0.00 0.00 0.00 0.00 0.00 0.00 0.00 0.00 0.00 0.00 0.00 0.00 0.00 0.00 0.12 0.00 0.15 0.20 0.00 0.00 0.11 0.00 0.35 0.05 0.00 0.00 0.25 0.19 0.00 0.00 0.06 0.30 0.00 0.45 0.00 0.22 0.00 0.50 0.00 0.27 0.00 0.26 0.00 0.27 0.00 0.00 0.44 0.00 0.00 0.33 0.00 0.39 0.00 0.34 0.00 0.00 0.36 0.00 0.57 0.00 0.00 0.31 0.00 0.11 0.00 0.00 0.16 0.00 0.31 0.00 0.00 0.29 0.00 0.35 0.00 0.00 0.12 0.16 0.00 0.09 0.12 0.00 0.10 0.16 0.09 0.00 0.00 0.00 0.04 0.41 0.00 0.03 0.30 0.00 0.00 0.01 0.20 0.16 0.00 0.00 0.27 0.00 0.24 0.00 0.33 0.00 0.00 0.00 0.00 0.00 0.36 0.00 0.14 0.00 0.00 0.00 0.16 0.00 0.11 0.00 0.09 0.32 0.10 0.00 0.00 0.00 0.53 0.00 0.29 0.00 0.29 0.15 0.00 0.00 0.00 0.03 0.01 0.00 0.28 0.00 0.08 0.20 0.00 0.00 0.00 0.54 0.00 0.37 0.00 0.00 0.45 0.02 0.00 0.06 0.00 0.05 0.00 0.36 0.00 0.05 0.01 0.23 0.00 0.14 0.29 0.05 0.00 0.00 0.23 0.00 0.04 0.00 0.02 0.19 0.00 0.17 0.23 0.03 0.00 0.00 0.36 0.00 0.12 0.00 0.00 0.01 0.12 0.00 0.38 0.17 0.00 0.00 0.32 0.07 0.00 0.00 0.06 0.26 0.00 0.00 0.16 0.36 0.00 0.04 0.05 0.19 0.00 0.34"/>
        <maxBR time="41.50" position="750.06,1513.42" value="3.00"/>
        <SGAPSpan values="NA NA NA NA NA NA NA NA NA NA NA NA NA NA NA NA NA NA NA NA NA NA NA NA NA NA NA NA NA NA NA NA NA NA NA NA NA NA NA NA NA NA NA NA NA NA NA NA NA NA NA NA NA NA NA NA NA NA NA NA NA NA NA NA NA NA NA NA NA NA NA NA NA NA NA NA NA NA NA NA NA NA NA NA NA NA NA NA NA NA NA NA NA NA NA NA NA NA NA NA NA NA NA NA NA NA NA NA NA NA NA NA NA NA NA NA NA NA NA NA NA NA NA NA NA NA NA NA NA NA NA NA NA NA NA NA NA NA NA NA NA NA NA NA NA NA NA NA NA NA NA NA NA NA NA NA NA NA NA NA NA NA NA NA NA NA NA NA NA NA NA NA NA NA NA NA NA NA NA NA NA NA NA NA NA NA NA NA NA NA NA NA NA NA NA NA NA NA NA NA NA NA NA NA NA NA NA NA NA NA NA NA NA NA NA NA NA NA NA NA NA NA NA NA NA NA NA NA NA NA NA NA NA NA NA NA NA NA NA NA NA NA NA NA NA NA NA NA NA NA NA NA NA NA NA NA NA NA NA NA NA NA NA NA NA NA NA NA NA NA NA NA NA NA NA NA NA NA NA NA NA NA NA NA NA NA NA NA NA NA NA NA NA NA NA NA NA NA NA NA NA NA NA NA NA NA NA NA NA NA NA NA NA NA NA NA NA NA NA NA NA NA NA NA NA NA NA NA NA NA NA NA NA NA NA NA NA NA NA NA NA NA NA NA NA NA NA NA NA NA NA NA NA NA NA NA NA NA NA NA NA NA NA NA NA NA NA NA NA NA NA NA NA NA NA NA NA NA NA NA NA NA NA NA NA NA NA NA NA NA NA NA NA NA NA NA NA NA NA NA NA NA NA NA NA NA NA NA NA NA NA NA NA NA NA NA NA NA NA"/>
        <TGAPSpan values="NA NA NA NA NA NA NA NA NA NA NA NA NA NA NA NA NA NA NA NA NA NA NA NA NA NA NA NA NA NA NA NA NA NA NA NA NA NA NA NA NA NA NA NA NA NA NA NA NA NA NA NA NA NA NA NA NA NA NA NA NA NA NA NA NA NA NA NA NA NA NA NA NA NA NA NA NA NA NA NA NA NA NA NA NA NA NA NA NA NA NA NA NA NA NA NA NA NA NA NA NA NA NA NA NA NA NA NA NA NA NA NA NA NA NA NA NA NA NA NA NA NA NA NA NA NA NA NA NA NA NA NA NA NA NA NA NA NA NA NA NA NA NA NA NA NA NA NA NA NA NA NA NA NA NA NA NA NA NA NA NA NA NA NA NA NA NA NA NA NA NA NA NA NA NA NA NA NA NA NA NA NA NA NA NA NA NA NA NA NA NA NA NA NA NA NA NA NA NA NA NA NA NA NA NA NA NA NA NA NA NA NA NA NA NA NA NA NA NA NA NA NA NA NA NA NA NA NA NA NA NA NA NA NA NA NA NA NA NA NA NA NA NA NA NA NA NA NA NA NA NA NA NA NA NA NA NA NA NA NA NA NA NA NA NA NA NA NA NA NA NA NA NA NA NA NA NA NA NA NA NA NA NA NA NA NA NA NA NA NA NA NA NA NA NA NA NA NA NA NA NA NA NA NA NA NA NA NA NA NA NA NA NA NA NA NA NA NA NA NA NA NA NA NA NA NA NA NA NA NA NA NA NA NA NA NA NA NA NA NA NA NA NA NA NA NA NA NA NA NA NA NA NA NA NA NA NA NA NA NA NA NA NA NA NA NA NA NA NA NA NA NA NA NA NA NA NA NA NA NA NA NA NA NA NA NA NA NA NA NA NA NA NA NA NA NA NA NA NA NA NA NA NA NA NA NA NA NA NA NA NA NA NA NA NA NA NA NA NA"/>
    </globalMeasures>
    <globalMeasures ego="flow_14.0">
        <timeSpan values="8.70 8.80 8.90 9.00 9.10 9.20 9.30 9.40 9.50 9.60 9.70 9.80 9.90 10.00 10.10 10.20 10.30 10.40 10.50 10.60 10.70 10.80 10.90 11.00 11.10 11.20 11.30 11.40 11.50 11.60 11.70 11.80 11.90 12.00 12.10 12.20 12.30 12.40 12.50 12.60 12.70 12.80 12.90 13.00 13.10 13.20 13.30 13.40 13.50 13.60 13.70 13.80 13.90 14.00 14.10 14.20 14.30 14.40 14.50 14.60 14.70 14.80 14.90 15.00 15.10 15.20 15.30 15.40 15.50 15.60 15.70 15.80 15.90 16.00 16.10 16.20 16.30 16.40 16.50 16.60 16.70 16.80 16.90 17.00 17.10 17.20 17.30 17.40 17.50 17.60 17.70 17.80 17.90 18.00 18.10 18.20 18.30 18.40 18.50 18.60 18.70 18.80 18.90 19.00 19.10 19.20 19.30 19.40 19.50 19.60 19.70 19.80 19.90 20.00 20.10 20.20 20.30 20.40 20.50 20.60 20.70 20.80 20.90 21.00 21.10 21.20 21.30 21.40 21.50 21.60 21.70 21.80 21.90 22.00 22.10 22.20 22.30 22.40 22.50 22.60 22.70 22.80 22.90 23.00 23.10 23.20 23.30 23.40 23.50 23.60 23.70 23.80 23.90 24.00 24.10 24.20 24.30 24.40 24.50 24.60 24.70 24.80 24.90 25.00 25.10 25.20 25.30 25.40 25.50 25.60 25.70 25.80 25.90 26.00 26.10 26.20 26.30 26.40 26.50 26.60 26.70 26.80 26.90 27.00 27.10 27.20 27.30 27.40 27.50 27.60 27.70 27.80 27.90 28.00 28.10 28.20 28.30 28.40 28.50 28.60 28.70 28.80 28.90 29.00 29.10 29.20 29.30 29.40 29.50 29.60 29.70 29.80 29.90 30.00 30.10 30.20 30.30 30.40 30.50 30.60 30.70 30.80 30.90 31.00 31.10 31.20 31.30 31.40 31.50 31.60 31.70 31.80 31.90 32.00 32.10 32.20 32.30 32.40 32.50 32.60 32.70 32.80 32.90 33.00 33.10 33.20 33.30 33.40 33.50 33.60 33.70 33.80 33.90 34.00 34.10 34.20 34.30 34.40 34.50 34.60 34.70 34.80 34.90 35.00 35.10 35.20 35.30 35.40 35.50 35.60 35.70 35.80 35.90 36.00 36.10 36.20 36.30 36.40 36.50 36.60 36.70 36.80 36.90 37.00 37.10 37.20 37.30 37.40 37.50 37.60 37.70 37.80 37.90 38.00 38.10 38.20 38.30 38.40 38.50 38.60 38.70 38.80 38.90 39.00 39.10 39.20 39.30 39.40 39.50 39.60 39.70 39.80 39.90 40.00 40.10 40.20 40.30 40.40 40.50 40.60 40.70 40.80 40.90 41.00 41.10 41.20 41.30 41.40 41.50 41.60 41.70 41.80 41.90 42.00 42.10 42.20 42.30 42.40 42.50 42.60 42.70 42.80 42.90 43.00 43.10 43.20 43.30 43.40 43.50 43.60 43.70 43.80 43.90 44.00 44.10 44.20 44.30 44.40 44.50 44.60 44.70 44.80 44.90 45.00 45.10 45.20 45.30 45.40 45.50 45.60 45.70 45.80 45.90 46.00 46.10 46.20 46.30 46.40 46.50 46.60 46.70 46.80 46.90 47.00 47.10 47.20 47.30 47.40 47.50 47.60 47.70 47.80 47.90 48.00 48.10 48.20 48.30 48.40 48.50 48.60 48.70 48.80 48.90 49.00 49.10 49.20 49.30 49.40 49.50 49.60 49.70 49.80 49.90 50.00 50.10 50.20 50.30 50.40 50.50 50.60 50.70 50.80 50.90 51.00 51.10 51.20 51.30 51.40 51.50 51.60 51.70 51.80 51.90 52.00 52.10 52.20 52.30 52.40 52.50 52.60 52.70 52.80 52.90 53.00 53.10 53.20 53.30 53.40 53.50 53.60 53.70 53.80 53.90 54.00 54.10 54.20 54.30 54.40 54.50 54.60 54.70 54.80 54.90 55.00 55.10 55.20 55.30 55.40 55.50 55.60 55.70 55.80 55.90 56.00 56.10 56.20 56.30 56.40 56.50 56.60 56.70 56.80 56.90 57.00 57.10 57.20 57.30 57.40 57.50 57.60 57.70 57.80 57.90 58.00 58.10 58.20 58.30 58.40 58.50 58.60 58.70 58.80 58.90 59.00 59.10 59.20 59.30 59.40 59.50 59.60 59.70 59.80 59.90 60.00 60.10 60.20 60.30 60.40 60.50 60.60 60.70 60.80 60.90 61.00 61.10 61.20 61.30 61.40 61.50 61.60 61.70 61.80 61.90 62.00 62.10 62.20 62.30 62.40 62.50 62.60 62.70 62.80 62.90 63.00 63.10 63.20 63.30 63.40 63.50 63.60 63.70 63.80 63.90 64.00 64.10 64.20 64.30 64.40 64.50 64.60 64.70 64.80 64.90 65.00 65.10 65.20 65.30 65.40 65.50 65.60 65.70 65.80 65.90 66.00 66.10 66.20 66.30 66.40 66.50 66.60 66.70 66.80 66.90 67.00 67.10 67.20 67.30 67.40 67.50 67.60 67.70 67.80 67.90 68.00 68.10 68.20 68.30 68.40 68.50 68.60 68.70 68.80 68.90 69.00 69.10 69.20 69.30 69.40 69.50 69.60 69.70 69.80 69.90 70.00 70.10 70.20 70.30 70.40 70.50 70.60 70.70 70.80 70.90 71.00 71.10 71.20 71.30 71.40 71.50 71.60 71.70 71.80 71.90 72.00 72.10 72.20 72.30 72.40 72.50 72.60 72.70 72.80 72.90 73.00 73.10 73.20 73.30 73.40 73.50 73.60 73.70 73.80 73.90 74.00 74.10 74.20 74.30 74.40 74.50 74.60 74.70 74.80 74.90 75.00 75.10 75.20 75.30 75.40 75.50 75.60 75.70 75.80 75.90 76.00 76.10 76.20 76.30 76.40 76.50 76.60 76.70 76.80 76.90 77.00 77.10 77.20 77.30 77.40 77.50"/>
        <BRSpan values="0.00 0.00 0.00 0.00 0.00 0.00 0.00 0.00 0.00 0.00 0.00 0.00 0.00 0.00 0.00 0.00 0.00 0.00 0.00 0.00 0.00 0.00 0.00 0.00 0.00 0.00 0.00 0.00 0.00 0.00 0.00 0.00 0.00 0.00 0.00 0.00 0.00 0.00 0.00 0.00 0.00 0.00 0.00 0.00 0.00 0.00 0.00 0.00 0.00 0.00 0.00 0.00 0.00 0.00 0.00 0.00 0.00 0.00 0.00 0.00 0.43 0.00 0.05 0.00 0.38 0.00 0.00 0.00 0.08 0.00 0.00 0.05 0.00 0.18 0.05 0.00 0.18 0.00 0.00 0.38 0.00 0.00 0.42 0.00 0.25 0.10 0.00 0.00 0.13 0.23 0.00 0.01 0.14 0.03 0.00 0.22 0.00 0.33 0.00 0.47 0.00 0.05 0.00 0.00 0.00 0.53 0.00 0.00 0.26 0.00 0.04 0.00 0.53 0.00 0.00 0.10 0.00 0.00 0.21 0.00 0.07 0.00 0.24 0.21 0.00 0.18 0.00 0.00 0.06 0.14 0.00 0.00 0.00 0.47 0.08 0.00 0.00 0.21 0.14 0.00 0.26 0.00 0.28 0.00 0.00 0.02 0.19 0.14 0.00 0.00 0.19 0.00 0.52 0.00 0.00 0.00 0.25 0.26 0.00 0.00 0.00 0.32 0.00 0.11 0.02 0.00 0.39 0.00 0.52 0.00 0.00 0.29 0.00 0.23 0.00 0.10 0.21 0.00 0.02 0.10 0.00 0.50 0.00 0.00 0.00 0.05 0.00 0.18 0.00 0.42 0.00 0.00 0.24 0.22 0.00 0.13 0.44 0.00 0.19 0.00 0.41 0.00 0.86 2.50 3.00 3.00 3.00 3.00 3.00 3.00 2.98 3.00 3.00 3.00 3.00 2.94 3.00 3.00 2.94 2.95 0.53 0.02 0.00 0.00 0.00 0.00 0.00 0.00 0.00 0.00 0.00 0.00 0.00 0.00 0.00 0.00 0.00 0.00 0.00 0.00 0.00 0.00 0.00 0.00 0.00 0.00 0.00 0.00 0.00 0.00 0.00 0.00 0.00 0.00 0.00 0.00 0.00 0.00 0.00 0.00 0.00 0.00 0.00 0.00 0.00 0.00 0.00 0.00 0.00 0.00 0.00 0.00 0.00 0.00 0.00 0.00 0.00 0.00 0.00 0.00 0.00 0.00 0.00 0.00 0.00 0.00 0.00 0.00 0.00 0.00 0.00 0.00 0.00 0.00 0.00 0.00 0.00 0.00 0.00 0.00 0.00 0.00 0.00 0.00 0.00 0.00 0.00 0.00 0.00 0.00 0.00 0.00 0.00 0.00 0.00 0.00 0.00 0.00 0.00 0.00 0.00 0.00 0.00 0.00 0.00 0.00 0.00 0.00 0.00 0.00 0.00 0.00 0.00 0.00 0.00 0.00 0.00 0.00 0.00 0.00 0.00 0.00 0.00 0.00 0.00 0.00 0.00 0.00 0.00 0.00 0.00 0.00 0.00 0.00 0.00 0.00 0.00 0.00 0.00 0.00 0.00 0.00 0.00 0.00 0.00 0.00 0.00 0.00 0.00 0.00 0.00 0.00 0.00 0.00 0.00 0.00 0.00 0.00 0.00 0.00 0.00 0.00 0.00 0.00 0.00 0.00 0.00 0.00 0.00 0.00 0.00 0.00 0.00 0.00 0.00 0.00 0.00 0.00 0.00 0.00 0.00 0.00 0.00 0.00 0.00 0.00 0.00 0.00 0.00 0.00 0.00 0.00 0.00 0.00 0.00 0.00 0.00 0.00 0.00 0.00 0.00 0.41 0.13 0.00 0.00 0.05 0.41 0.00 0.18 0.00 0.13 0.00 0.00 0.33 0.04 0.00 0.10 0.10 0.00 0.00 0.23 0.07 0.00 0.02 0.01 0.06 0.00 0.09 0.29 0.03 0.00 0.35 0.00 0.30 0.04 0.00 0.34 0.08 0.00 0.09 0.00 0.39 0.00 0.15 0.13 0.00 0.54 0.00 0.00 0.00 0.26 0.00 0.11 0.00 0.00 0.00 0.20 0.26 0.00 0.12 0.00 0.21 0.00 0.00 0.29 0.05 0.00 0.00 0.13 0.00 0.49 0.00 0.00 0.00 0.32 0.00 0.10 0.21 0.00 0.00 0.00 0.00 0.05 0.45 0.01 0.00 0.16 0.04 0.11 0.00 0.05 0.06 0.26 0.00 0.10 0.00 0.23 0.03 0.00 0.40 0.00 0.00 0.06 0.41 0.00 0.00 0.00 0.03 0.21 0.00 0.31 0.00 0.24 0.00 0.17 0.00 0.00 0.42 0.00 0.00 0.27 0.00 0.48 0.03 0.00 0.36 0.00 0.03 0.39 0.00 0.00 0.00 0.28 0.00 0.00 0.31 0.00 0.00 0.00 0.49 0.00 0.00 0.04 0.12 0.32 0.00 0.00 0.27 0.00 0.00 0.07 0.00 0.19 0.00 0.00 0.24 0.00 0.00 0.00 0.23 0.20 0.00 0.14 0.00 0.26 0.00 0.00 0.19 0.00 0.43 0.00 0.00 0.37 0.00 0.37 0.00 0.24 0.00 0.06 0.40 0.00 0.15 0.27 0.06 0.00 0.26 0.00 0.09 0.00 0.15 0.03 0.19 0.00 0.01 0.17 0.00 0.39 0.00 0.00 0.20 0.00 0.26 0.00 0.41 0.00 0.00 0.22 0.18 0.00 0.16 0.26 0.07 0.00 0.30 0.00 0.48 0.00 0.37 0.00 0.10 0.00 0.32 0.09 0.10 0.00 0.01 0.22 0.00 0.02 0.34 0.00 0.45 0.00 0.07 0.00 0.00 0.00 0.04 0.44 0.00 0.00 0.00 0.10 0.02 0.27 0.00 0.00 0.09 0.05 0.09 0.00 0.17 0.00 0.30 0.02 0.00 0.23 0.00 0.00 0.00 0.46 0.00 0.27 0.00 0.00 0.17 0.00 0.00 0.02"/>
        <maxBR time="30.00" position="765.10,1494.14" value="3.00"/>
        <SGAPSpan values="NA NA NA NA NA NA NA NA NA NA NA NA NA NA NA NA NA NA NA NA NA NA NA NA NA NA NA NA NA NA NA NA NA NA NA NA NA NA NA NA NA NA NA NA NA NA NA NA NA NA NA NA NA NA NA NA NA NA NA NA NA NA NA NA NA NA NA NA NA NA NA NA NA NA NA NA NA NA NA NA NA NA NA NA NA NA NA NA NA NA NA NA NA NA NA NA NA NA NA NA NA NA NA NA NA NA NA NA NA NA NA NA NA NA NA NA NA NA NA NA NA NA NA NA NA NA NA NA NA NA NA NA NA NA NA NA NA NA NA NA NA NA NA NA NA NA NA NA NA NA NA NA NA NA NA NA NA NA NA NA NA NA NA NA NA NA NA NA NA NA NA NA NA NA NA NA NA NA NA NA NA NA NA NA NA NA NA NA NA NA NA NA NA NA NA NA NA NA NA NA NA NA NA NA NA NA NA NA NA NA NA NA NA NA NA NA NA NA NA NA NA NA NA NA NA NA NA NA NA NA NA NA NA NA NA NA NA NA NA NA NA NA NA NA NA NA NA NA NA NA NA NA NA NA NA NA NA NA NA NA NA NA NA NA NA NA NA NA NA NA NA NA NA NA NA NA NA NA NA NA NA NA NA NA NA NA NA NA NA NA NA NA NA NA NA NA NA NA NA NA NA NA NA NA NA NA NA NA NA NA NA NA NA NA NA NA NA NA NA NA NA NA NA NA NA NA NA NA NA NA NA NA NA NA NA NA NA NA NA NA NA NA NA NA NA NA NA NA NA NA NA NA NA NA NA NA NA NA NA NA NA NA NA NA NA NA NA NA NA NA NA NA NA NA NA NA NA NA NA NA NA NA NA NA NA NA NA NA NA NA NA NA NA NA NA NA NA NA NA NA NA NA NA NA NA NA NA NA NA NA NA NA NA NA NA NA NA NA NA NA NA NA NA NA NA NA NA NA NA NA NA NA NA NA NA NA NA NA NA NA NA NA NA NA NA NA NA NA NA NA NA NA NA NA NA NA NA NA NA NA NA NA NA NA NA NA NA NA NA NA NA NA NA NA NA NA NA NA NA NA NA NA NA NA NA NA NA NA NA NA NA NA NA NA NA NA NA NA NA NA NA NA NA NA NA NA NA NA NA NA NA NA NA NA NA NA NA NA NA NA NA NA NA NA NA NA NA NA NA NA NA NA NA NA NA NA NA NA NA NA NA NA NA NA NA NA NA NA NA NA NA NA NA NA NA NA NA NA NA NA NA NA NA NA NA NA NA NA NA NA NA NA NA NA NA NA NA NA NA NA NA NA NA NA NA NA NA NA NA NA NA NA NA NA NA NA NA NA NA NA NA NA NA NA NA NA NA NA NA NA NA NA NA NA NA NA NA NA NA NA NA NA NA NA NA NA NA NA NA NA NA NA NA NA NA NA NA NA NA NA NA NA NA NA NA NA NA NA NA NA NA NA NA NA NA NA NA NA NA NA NA NA NA NA NA NA NA NA NA NA NA NA NA NA NA NA NA NA NA NA NA NA NA NA NA NA NA NA NA"/>
        <TGAPSpan values="NA NA NA NA NA NA NA NA NA NA NA NA NA NA NA NA NA NA NA NA NA NA NA NA NA NA NA NA NA NA NA NA NA NA NA NA NA NA NA NA NA NA NA NA NA NA NA NA NA NA NA NA NA NA NA NA NA NA NA NA NA NA NA NA NA NA NA NA NA NA NA NA NA NA NA NA NA NA NA NA NA NA NA NA NA NA NA NA NA NA NA NA NA NA NA NA NA NA NA NA NA NA NA NA NA NA NA NA NA NA NA NA NA NA NA NA NA NA NA NA NA NA NA NA NA NA NA NA NA NA NA NA NA NA NA NA NA NA NA NA NA NA NA NA NA NA NA NA NA NA NA NA NA NA NA NA NA NA NA NA NA NA NA NA NA NA NA NA NA NA NA NA NA NA NA NA NA NA NA NA NA NA NA NA NA NA NA NA NA NA NA NA NA NA NA NA NA NA NA NA NA NA NA NA NA NA NA NA NA NA NA NA NA NA NA NA NA NA NA NA NA NA NA NA NA NA NA NA NA NA NA NA NA NA NA NA NA NA NA NA NA NA NA NA NA NA NA NA NA NA NA NA NA NA NA NA NA NA NA NA NA NA NA NA NA NA NA NA NA NA NA NA NA NA NA NA NA NA NA NA NA NA NA NA NA NA NA NA NA NA NA NA NA NA NA NA NA NA NA NA NA NA NA NA NA NA NA NA NA NA NA NA NA NA NA NA NA NA NA NA NA NA NA NA NA NA NA NA NA NA NA NA NA NA NA NA NA NA NA NA NA NA NA NA NA NA NA NA NA NA NA NA NA NA NA NA NA NA NA NA NA NA NA NA NA NA NA NA NA NA NA NA NA NA NA NA NA NA NA NA NA NA NA NA NA NA NA NA NA NA NA NA NA NA NA NA NA NA NA NA NA NA NA NA NA NA NA NA NA NA NA NA NA NA NA NA NA NA NA NA NA NA NA NA NA NA NA NA NA NA NA NA NA NA NA NA NA NA NA NA NA NA NA NA NA NA NA NA NA NA NA NA NA NA NA NA NA NA NA NA NA NA NA NA NA NA NA NA NA NA NA NA NA NA NA NA NA NA NA NA NA NA NA NA NA NA NA NA NA NA NA NA NA NA NA NA NA NA NA NA NA NA NA NA NA NA NA NA NA NA NA NA NA NA NA NA NA NA NA NA NA NA NA NA NA NA NA NA NA NA NA NA NA NA NA NA NA NA NA NA NA NA NA NA NA NA NA NA NA NA NA NA NA NA NA NA NA NA NA NA NA NA NA NA NA NA NA NA NA NA NA NA NA NA NA NA NA NA NA NA NA NA NA NA NA NA NA NA NA NA NA NA NA NA NA NA NA NA NA NA NA NA NA NA NA NA NA NA NA NA NA NA NA NA NA NA NA NA NA NA NA NA NA NA NA NA NA NA NA NA NA NA NA NA NA NA NA NA NA NA NA NA NA NA NA NA NA NA NA NA NA NA NA NA NA NA NA NA NA NA NA NA NA NA NA NA NA NA NA NA NA NA NA NA NA NA NA NA NA NA NA NA NA NA NA NA NA NA NA"/>
    </globalMeasures>
    <conflict begin="53.30" end="79.40" ego="flow_15.0" foe="flow_12.0">
        <minTTC time="62.00" position="758.87,1502.54" type="6" value="3.45" speed="5.82"/>
        <maxDRAC time="62.00" position="758.87,1502.54" type="6" value="0.84" speed="5.82"/>
        <PET time="NA" position="NA" type="NA" value="NA" speed="NA"/>
        <minPPET time="62.00" position="758.87,1502.54" type="111" value="-0.36" speed="5.82"/>
        <maxMDRAC time="62.00" position="758.87,1502.54" type="6" value="1.19" speed="5.82"/>
    </conflict>
    <conflict begin="54.60" end="78.50" ego="flow_15.0" foe="flow_12.1">
        <minTTC time="55.60" position="758.87,1502.54" type="6" value="10.15" speed="5.82"/>
        <maxDRAC time="55.60" position="758.87,1502.54" type="6" value="0.27" speed="5.82"/>
        <PET time="NA" position="NA" type="NA" value="NA" speed="NA"/>
        <minPPET time="54.60" position="758.87,1502.54" type="111" value="-0.20" speed="5.85"/>
        <maxMDRAC time="55.60" position="758.87,1502.54" type="6" value="0.29" speed="5.82"/>
    </conflict>
    <conflict begin="58.60" end="78.80" ego="flow_15.0" foe="flow_4.4">
        <minTTC time="61.00" position="755.50,1494.41" type="11" value="2.92" speed="5.83"/>
        <maxDRAC time="61.10" position="756.27,1495.13" type="10" value="3.05" speed="5.82"/>
        <PET time="75.58" position="756.27,1495.13" type="17" value="11.01" speed="5.87"/>
        <minPPET time="61.00" position="755.50,1494.41" type="111" value="-1.30" speed="5.83"/>
        <maxMDRAC time="61.00" position="755.50,1494.41" type="11" value="1.52" speed="5.83"/>
    </conflict>
    <globalMeasures ego="flow_15.0">
        <timeSpan values="46.20 46.30 46.40 46.50 46.60 46.70 46.80 46.90 47.00 47.10 47.20 47.30 47.40 47.50 47.60 47.70 47.80 47.90 48.00 48.10 48.20 48.30 48.40 48.50 48.60 48.70 48.80 48.90 49.00 49.10 49.20 49.30 49.40 49.50 49.60 49.70 49.80 49.90 50.00 50.10 50.20 50.30 50.40 50.50 50.60 50.70 50.80 50.90 51.00 51.10 51.20 51.30 51.40 51.50 51.60 51.70 51.80 51.90 52.00 52.10 52.20 52.30 52.40 52.50 52.60 52.70 52.80 52.90 53.00 53.10 53.20 53.30 53.40 53.50 53.60 53.70 53.80 53.90 54.00 54.10 54.20 54.30 54.40 54.50 54.60 54.70 54.80 54.90 55.00 55.10 55.20 55.30 55.40 55.50 55.60 55.70 55.80 55.90 56.00 56.10 56.20 56.30 56.40 56.50 56.60 56.70 56.80 56.90 57.00 57.10 57.20 57.30 57.40 57.50 57.60 57.70 57.80 57.90 58.00 58.10 58.20 58.30 58.40 58.50 58.60 58.70 58.80 58.90 59.00 59.10 59.20 59.30 59.40 59.50 59.60 59.70 59.80 59.90 60.00 60.10 60.20 60.30 60.40 60.50 60.60 60.70 60.80 60.90 61.00 61.10 61.20 61.30 61.40 61.50 61.60 61.70 61.80 61.90 62.00 62.10 62.20 62.30 62.40 62.50 62.60 62.70 62.80 62.90 63.00 63.10 63.20 63.30 63.40 63.50 63.60 63.70 63.80 63.90 64.00 64.10 64.20 64.30 64.40 64.50 64.60 64.70 64.80 64.90 65.00 65.10 65.20 65.30 65.40 65.50 65.60 65.70 65.80 65.90 66.00 66.10 66.20 66.30 66.40 66.50 66.60 66.70 66.80 66.90 67.00 67.10 67.20 67.30 67.40 67.50 67.60 67.70 67.80 67.90 68.00 68.10 68.20 68.30 68.40 68.50 68.60 68.70 68.80 68.90 69.00 69.10 69.20 69.30 69.40 69.50 69.60 69.70 69.80 69.90 70.00 70.10 70.20 70.30 70.40 70.50 70.60 70.70 70.80 70.90 71.00 71.10 71.20 71.30 71.40 71.50 71.60 71.70 71.80 71.90 72.00 72.10 72.20 72.30 72.40 72.50 72.60 72.70 72.80 72.90 73.00 73.10 73.20 73.30 73.40 73.50 73.60 73.70 73.80 73.90 74.00 74.10 74.20 74.30 74.40 74.50 74.60 74.70 74.80 74.90 75.00 75.10 75.20 75.30 75.40 75.50 75.60 75.70 75.80 75.90 76.00 76.10 76.20 76.30 76.40 76.50 76.60 76.70 76.80 76.90 77.00 77.10 77.20 77.30 77.40 77.50 77.60 77.70 77.80 77.90 78.00 78.10 78.20 78.30 78.40 78.50 78.60 78.70 78.80 78.90 79.00 79.10 79.20 79.30 79.40 79.50 79.60 79.70 79.80 79.90 80.00 80.10 80.20 80.30 80.40 80.50 80.60 80.70 80.80 80.90 81.00 81.10 81.20 81.30 81.40 81.50 81.60 81.70 81.80 81.90 82.00 82.10 82.20 82.30 82.40 82.50 82.60 82.70 82.80 82.90 83.00 83.10 83.20 83.30 83.40 83.50 83.60 83.70 83.80 83.90 84.00 84.10 84.20 84.30 84.40 84.50 84.60 84.70 84.80 84.90 85.00 85.10 85.20 85.30 85.40 85.50 85.60 85.70 85.80 85.90 86.00 86.10"/>
        <BRSpan values="0.00 0.00 0.00 0.00 0.00 0.00 0.00 0.00 0.00 0.00 0.00 0.00 0.00 0.00 0.00 0.00 0.00 0.00 0.00 0.00 0.00 0.00 0.00 0.00 0.00 0.00 0.00 0.00 0.00 0.00 0.00 0.00 0.00 0.00 0.00 0.00 0.00 0.00 0.00 0.00 0.00 0.00 0.00 0.00 0.00 0.00 0.00 0.00 0.00 0.00 0.00 0.00 0.00 0.00 0.00 0.00 0.00 0.00 0.00 0.00 0.00 0.00 0.00 0.29 0.00 0.36 0.00 0.00 0.45 0.00 0.00 0.16 0.00 0.00 0.35 0.00 0.29 0.00 0.31 0.00 0.38 0.00 0.05 0.26 0.00 0.00 0.03 0.22 0.00 0.00 0.00 0.18 0.04 0.31 0.00 0.00 0.34 0.00 0.00 0.14 0.00 0.19 0.00 0.22 0.00 0.47 0.00 0.29 0.00 0.00 0.19 0.00 0.00 0.37 0.00 0.00 0.09 0.11 0.23 0.00 0.07 0.00 0.32 0.00 0.14 0.00 0.00 0.00 0.20 0.00 0.20 0.12 0.00 0.13 0.00 0.00 0.14 0.00 0.00 0.54 0.04 0.00 0.00 0.00 0.28 0.00 0.10 0.00 0.26 0.11 0.07 0.00 0.00 0.17 0.24 0.12 0.00 0.09 0.22 0.00 0.00 0.00 0.42 0.00 0.48 0.00 0.24 0.00 0.24 0.00 0.11 0.14 0.00 0.00 0.03 0.28 0.00 0.00 0.26 0.00 0.00 0.03 0.49 0.00 0.37 0.00 0.47 0.00 0.00 0.00 0.00 0.00 0.00 0.05 0.12 0.31 0.00 0.03 0.02 0.00 0.00 0.00 0.25 0.00 0.00 0.07 0.04 0.13 0.12 0.13 0.00 0.19 0.14 0.00 0.03 0.41 0.00 0.00 0.00 0.18 0.08 0.00 0.00 0.24 0.00 0.27 0.17 0.00 0.00 0.35 0.00 0.29 0.00 0.05 0.15 0.00 0.00 0.18 0.00 0.00 0.12 0.40 0.00 0.03 0.30 0.00 0.45 0.00 0.00 0.00 0.13 0.00 0.29 0.00 0.07 0.06 0.01 0.17 0.00 0.37 0.00 0.00 0.06 0.01 0.00 0.40 0.00 0.05 0.00 0.40 0.00 0.06 0.00 0.05 0.24 0.00 0.54 0.00 0.08 0.00 0.30 0.00 0.50 0.00 0.00 0.06 0.20 0.00 0.00 0.00 0.28 0.00 0.01 0.31 0.00 0.21 0.00 0.00 0.19 0.13 0.00 0.29 0.00 0.00 0.00 0.35 0.00 0.12 0.03 0.10 0.00 0.42 0.00 0.31 0.09 0.00 0.00 0.13 0.00 0.02 0.42 0.00 0.33 0.18 0.00 0.25 0.09 0.00 0.33 0.03 0.00 0.00 0.00 0.17 0.00 0.00 0.00 0.24 0.24 0.00 0.16 0.00 0.34 0.00 0.00 0.02 0.55 0.00 0.07 0.06 0.00 0.00 0.11 0.49 0.00 0.26 0.00 0.18 0.00 0.00 0.25 0.00 0.16 0.14 0.05 0.00 0.00 0.00 0.15 0.41 0.00 0.00 0.13 0.00 0.42 0.00 0.00 0.11 0.08 0.28 0.00 0.00 0.00 0.49 0.00 0.04 0.00 0.17 0.00 0.00 0.56 0.00 0.01 0.00 0.15 0.00 0.00 0.00 0.05 0.08"/>
        <maxBR time="85.20" position="800.29,1610.11" value="0.56"/>
        <SGAPSpan values="NA NA NA NA NA NA NA NA NA NA NA NA NA NA NA NA NA NA NA NA NA NA NA NA NA NA NA NA NA NA NA NA NA NA NA NA NA NA NA NA NA NA NA NA NA NA NA NA NA NA NA NA NA NA NA NA NA NA NA NA NA NA NA NA NA NA NA NA NA NA NA NA NA NA NA NA NA NA NA NA NA NA NA NA NA NA NA NA NA NA NA NA NA NA NA NA NA NA NA NA NA NA NA NA NA NA NA NA NA NA NA NA NA NA NA NA NA NA NA NA NA NA NA NA NA NA NA NA NA NA NA NA NA NA NA NA NA NA NA NA NA NA NA NA NA NA NA NA NA NA NA NA NA NA NA NA NA NA NA NA NA NA NA NA NA NA NA NA NA NA NA NA NA NA NA NA NA NA NA NA NA NA NA NA NA NA NA NA NA NA NA NA NA NA NA NA NA NA NA NA NA NA NA NA NA NA NA NA NA NA NA NA NA NA NA NA NA NA NA NA NA NA NA NA NA NA NA NA NA NA NA NA NA NA NA NA NA NA NA NA NA NA NA NA NA NA NA NA NA NA NA NA NA NA NA NA NA NA NA NA NA NA NA NA NA NA NA NA NA NA NA NA NA NA NA NA NA NA NA NA NA NA NA NA NA NA NA NA NA NA NA NA NA NA NA NA NA NA NA NA NA NA NA NA NA NA NA NA NA NA NA NA NA NA NA NA NA NA NA NA NA NA NA NA NA NA NA NA NA NA NA NA NA NA NA NA NA NA NA NA NA NA NA NA NA NA NA NA NA NA NA NA NA NA NA NA NA NA NA NA NA NA NA NA NA NA NA NA NA NA NA NA NA NA NA NA NA NA NA NA NA NA NA NA NA NA NA NA NA NA NA NA NA NA NA NA NA NA NA NA"/>