<?xml version="1.0" encoding="UTF-8"?>

<!-- generated on 2025-11-25 16:08:36 by Eclipse SUMO netedit Version 1.23.1
-->

<routes xmlns:xsi="http://www.w3.org/2001/XMLSchema-instance" xsi:noNamespaceSchemaLocation="http://sumo.dlr.de/xsd/routes_file.xsd">
    
	<!-- Custom Vehicle Types -->
	<vType id="floating_car_observer" color="1,0,0"/>
	<vType id="floating_bike_observer" color="1,0,0" length="2" width="0.5" vClass="bicycle"/>
	<vType id="parked_vehicle" color="0,1,0"/>
	<vType id="DEFAULT_BIKETYPE" length="2" width="0.5" vClass="bicycle">
    	<param key="has.ssm.device" value="true"/>
		<param key="device.ssm.file" value="SUMO/out_SSM/SSM_bicycles_HD"/>
	</vType>
	<vType id="truck" vClass="truck"/>
	
	<!-- Passenger Car Demand -->
	<flow id="flow_0" begin="10.00" from="E28" to="E19" end="3600.00" vehsPerHour="20"/> <!-- South to South-West (-) -->
	
    <flow id="flow_1" begin="10.00" from="E15" to="E27" end="3600.00" vehsPerHour="20"/> <!-- South-West to South (4->3 : 1) -->
    <flow id="flow_2" begin="10.00" from="E15" to="E19" end="3600.00" vehsPerHour="30"/> <!-- South-West to South-East (4->3 : 2) -->
	<flow id="flow_3.1" begin="10.00" from="E13" to="E42" end="3600.00" vehsPerHour="450"/> <!-- South-West to North-East (4->2 : 1) -->
	<flow id="flow_3.2" begin="10.00" from="E15" to="E42" end="3600.00" vehsPerHour="230"/> <!-- South-West to North-East (4->2 : 2) -->
	<flow id="flow_4" begin="10.00" from="E12" to="E37" end="3600.00" vehsPerHour="215"/> <!-- South-West to North (4->1) -->
	
	<flow id="flow_5" begin="10.00" from="E30" to="E42" end="3600.00" vehsPerHour="20"/> <!-- South-East to North-East (3->2) -->
    <flow id="flow_6" begin="10.00" from="E30" to="E37" end="3600.00" vehsPerHour="260"/> <!-- South-East to North (3->1) -->
    <flow id="flow_7" begin="10.00" from="E30" to="E5" end="3600.00" vehsPerHour="60"/>  <!-- South-East to South-West (3->4) -->
	
	<flow id="flow_8" begin="10.00" from="E43" to="E37" end="3600.00" vehsPerHour="30"/> <!-- North-East to North (2->1) -->
	<flow id="flow_9.1" begin="10.00" from="E43" to="E5" end="3600.00" vehsPerHour="150"/>  <!-- North-East to South-West (2->4 : 1) -->
	<flow id="flow_9.2" begin="10.00" from="E43" to="E11" end="3600.00" vehsPerHour="150"/>  <!-- North-East to South-West (2->4 : 2) -->
    
    <flow id="flow_10" begin="10.00" from="E3" to="E11" end="3600.00" vehsPerHour="55"/> <!-- North to South-West (1->4 : 1) -->
	<flow id="flow_11" begin="10.00" from="E3" to="E27" end="3600.00" vehsPerHour="45"/> <!-- North to South (1->3 : 2) -->
    <flow id="flow_12" begin="10.00" from="E3" to="E19" end="3600.00" vehsPerHour="240"/> <!-- North to South-East (1->3 : 1) -->
    <flow id="flow_13" begin="10.00" from="E3" to="E42" end="3600.00" vehsPerHour="55"/> <!-- North to North-East (1->2) -->
	
	<flow id="flow_14" begin="10.00" from="E24" to="E11" end="3600.00" vehsPerHour="20"/> <!-- North-West to South-West (1->4 : 2) -->
	
	<!-- Heavy Duty Vehicle Demand -->
	
	<flow id="flow_33" type="truck" begin="10.00" from="E13" to="E42" end="3600.00" vehsPerHour="15"/> <!-- South-West to North-East (4->2) -->
	
    <flow id="flow_36" type="truck" begin="10.00" from="E30" to="E37" end="3600.00" vehsPerHour="15"/> <!-- South-East to North (3->1) -->
	
	<flow id="flow_38" type="truck" begin="10.00" from="E43" to="E37" end="3600.00" vehsPerHour="5"/> <!-- North-East to North (2->1) -->
	<flow id="flow_39" type="truck" begin="10.00" from="E43" to="E5" end="3600.00" vehsPerHour="20"/>  <!-- North-East to South-West (2->4) -->
    
    <flow id="flow_40" type="truck" begin="10.00" from="E3" to="E11" end="3600.00" vehsPerHour="5"/> <!-- North to South-West (1->4) -->
    <flow id="flow_41" type="truck" begin="10.00" from="E3" to="E19" end="3600.00" vehsPerHour="10"/> <!-- North to South-East (1->3) -->
    <flow id="flow_42" type="truck" begin="10.00" from="E3" to="E42" end="3600.00" vehsPerHour="5"/> <!-- North to North-East (1->2) -->
	
	<!-- Bicycle Demand -->
	<flow id="flow_50" type="DEFAULT_BIKETYPE" begin="10.00" from="E28" to="E20" end="3600.00" vehsPerHour="20"/> <!-- South to South-West (-) -->
	
	<flow id="flow_51" type="DEFAULT_BIKETYPE" begin="10.00" from="E38" to="E27" end="3600.00" vehsPerHour="2"/> <!-- South-West to South (4->3 : 1) -->
    <flow id="flow_52" type="DEFAULT_BIKETYPE" begin="10.00" from="E38" to="E20" end="3600.00" vehsPerHour="3"/> <!-- South-West to South-East (4->3 : 2) -->
	<flow id="flow_53" type="DEFAULT_BIKETYPE" begin="10.00" from="E38" to="E8" end="3600.00" vehsPerHour="410"/>  <!-- South-West to North-East (4->2) -->
	<flow id="flow_54" type="DEFAULT_BIKETYPE" begin="10.00" from="E38" to="E14" end="3600.00" vehsPerHour="15"/> <!-- South-West to North (4->1) -->
	
    <flow id="flow_55" type="DEFAULT_BIKETYPE" begin="10.00" from="E7" to="E8" end="3600.00" vehsPerHour="5"/>   <!-- South-East to North-East (3->2) -->
	<flow id="flow_56" type="DEFAULT_BIKETYPE" begin="10.00" from="E7" to="E14" end="3600.00" vehsPerHour="400"/>  <!-- South-East to North (3->1) -->
	<flow id="flow_57" type="DEFAULT_BIKETYPE" begin="10.00" from="E7" to="E16" end="3600.00" vehsPerHour="10"/>  <!-- South-East to South-West (3->4) -->
    
    <flow id="flow_58" type="DEFAULT_BIKETYPE" begin="10.00" from="E9" to="E14" end="3600.00" vehsPerHour="65"/>  <!-- North-East to North (2->1) -->
    <flow id="flow_59" type="DEFAULT_BIKETYPE" begin="10.00" from="E9" to="E16" end="3600.00" vehsPerHour="260"/>  <!-- North-East to South-West (2->4) -->
	
    <flow id="flow_63" type="DEFAULT_BIKETYPE" begin="10.00" from="E21" to="E27" end="3600.00" vehsPerHour="15"/> <!-- North to South (1->3 : 2) -->
    <flow id="flow_64" type="DEFAULT_BIKETYPE" begin="10.00" from="E21" to="E20" end="3600.00" vehsPerHour="160"/> <!-- North to South-East (1->3 : 1) -->
	
	<!-- Floating Car Observer -->
	<trip id="FCO" type="floating_car_observer" depart="30.00" color="red" from="E13" to="E42"/>
	
</routes>
