<?xml version="1.0" encoding="UTF-8"?>

<!-- generated on 2026-04-11 14:23:16 by Eclipse SUMO netedit Version 1.23.1
-->

<routes xmlns:xsi="http://www.w3.org/2001/XMLSchema-instance" xsi:noNamespaceSchemaLocation="http://sumo.dlr.de/xsd/routes_file.xsd">
    <!-- Vehicles, persons and containers (sorted by depart) -->
    <trip id="t_0" depart="20.00" color="red" from="E13" to="E42"/>
</routes>
